 Monthly Averaged GW/SW Rates for MODFLOW
 
 month:           1 year:        1985
 Layer, Row, Column, Rate
           1           4          11  -40.05746    
           1           6          17  -62.92856    
           1           6          16  -3.557728    
           1           5          16  -180.9811    
           1           5          15  -2.503757    
           1           5          14  -127.2611    
           1           5          13  -203.8956    
           1           5          12  -319.9828    
           1           4          12   16.74949    
           1           4          11  -40.05746    
           1           4          10  -169.6014    
           1           3          10  -140.8772    
           1           3           9  -111.0757    
           1           3           8  -129.1016    
           1           2           8  -131.1965    
           1           2           7  -329.0204    
           1           2           6  -324.9534    
           1           3           6   358.1779    
           1           3           5  -331.6679    
           1           3           4  -5.446306    
           1           6          25  -27.53179    
           1           6          24  -121.2410    
           1           6          23  -39.07013    
           1           7          23  -315.9846    
           1           7          22  -205.6650    
           1           8          22  -390.3044    
           1           8          21  -38.96828    
           1           9          21  -332.6328    
           1           9          20  -317.3901    
           1           9          19  -167.1087    
           1           9          18  -371.7047    
           1          10          18   160.9634    
           1          11          17  -149.7870    
           1          12          17  -394.7815    
           1          12          16  -85.23850    
           1           5          26  -93.08798    
           1           9          31  -37.83523    
           1          10          30  -173.5032    
           1          11          29  -130.2552    
           1          11          29  -130.2552    
           1          11          28   314.5131    
           1          12          28  -377.3229    
           1          12          27  -97.26833    
           1           6          17  -62.92856    
           1           6          16  -3.557728    
           1           6          15  -2.930859    
           1           7          15  -188.2355    
           1           7          14  -60.00573    
           1           8          14  -593.0565    
           1           9          14  -46.40335    
           1           9          13  -288.4296    
           1           8          13   151.2137    
           1           8          12  -411.7939    
           1           8          11  -283.9678    
           1          12          36  -40.65511    
           1          11          36  -108.1513    
           1          11          35  -65.27170    
           1          10          35  -177.3783    
           1          10          34  -32.78407    
           1          10          33   28.74102    
           1          10          32  -63.36244    
           1          10          31  -1.286173    
           1           9          31  -37.83523    
           1           8          31  -190.6651    
           1           8          30  -158.6344    
           1           8          29  -173.4922    
           1           8          28  -81.78039    
           1           7          28  -267.2160    
           1           7          27  -98.54812    
           1           7          26   111.5622    
           1           6          26  -162.4476    
           1           5          26  -93.08798    
           1           5          25  -125.2867    
           1           6          25  -27.53179    
           1           6          24  -121.2410    
           1           5          24  -120.2411    
           1           5          23  -37.97567    
           1           5          22  -188.2804    
           1           5          21  -293.3978    
           1           5          20  -410.1725    
           1           4          20  -178.0162    
           1           4          19  -92.69001    
           1           5          19  -62.97907    
           1           5          18  -135.8996    
           1           5          17  -39.99062    
           1           6          17  -62.92856    
           1          12          27  -97.26833    
           1          12          26  -215.3018    
           1          12          26  -215.3018    
           1          12          25  -310.9980    
           1          12          24  -642.5055    
           1          12          23  -411.6801    
           1          12          22  -167.7142    
           1          12          22  -167.7142    
           1          13          22  -4.954859    
           1          13          22  -4.954859    
           1          13          21  -92.10773    
           1          13          21  -92.10773    
           1          14          20  -233.1825    
           1          14          19  -264.6971    
           1          15          19   135.8825    
           1          15          18  -621.3495    
           1          15          40  -167.5206    
           1          15          39  -404.7602    
           1          15          38   318.0275    
           1          14          38  -356.4197    
           1          14          37  -154.3813    
           1          13          36  -48.45444    
           1          13          37  -94.38125    
           1          12          37   42.31028    
           1          12          36  -40.65511    
           1          15          40  -167.5206    
           1          15          39  -404.7602    
           1          15          38   318.0275    
           1          16          38  -523.0518    
           1          17          38  -1082.870    
           1          18          38   357.9859    
           1          18          37  -662.7172    
           1          18          36   9.979033    
           1          19          36  -163.4568    
           1          19          35  -442.6483    
           1          19          34  -592.7949    
           1          20          34   357.9859    
           1          20          33  -623.1044    
           1          20          32  -120.7861    
           1          21          32  -297.1876    
           1          12          36  -40.65511    
           1          13          36  -48.45444    
           1          13          35  -140.7865    
           1          12          35   38.42633    
           1          12          34  -42.11202    
           1          11          34   103.2454    
           1          11          33  -23.69692    
           1          11          32   36.55615    
           1          12          32   210.4435    
           1          12          31   357.9859    
           1          13          31   116.2601    
           1          13          30  -324.2265    
           1          14          30  -485.0725    
           1          15          30  -172.9598    
           1          15          29  -325.4080    
           1          17          29   330.9926    
           1          16          29  -854.9453    
           1          16          28  -133.3293    
           1          17          28  -575.2718    
           1          18          28   231.3676    
           1          18          27   34.12822    
           1          19          27  -52.82730    
           1          12          35   38.42633    
           1          12          34  -42.11202    
           1          13          34  -206.6653    
           1          13          33  -132.5832    
           1          14          33  -328.4699    
           1          15          33  -732.9482    
           1          16          33  -296.0518    
           1          17          33   78.03083    
           1          17          32   56.86856    
           1          18          32  -779.8514    
           1          19          32   357.9859    
           1          19          31  -437.0088    
           1          19          30  -630.9706    
           1          20          30   216.0601    
           1          20          29   235.7599    
           1          21          29  -410.6246    
           1          22          29   212.2407    
           1          22          28  -335.8342    
 
 month:           2 year:        1985
 Layer, Row, Column, Rate
           1           4          11  -98.90072    
           1           6          17  -77.20203    
           1           6          16  -40.05270    
           1           5          16  -245.9545    
           1           5          15  -86.59862    
           1           5          14  -181.9167    
           1           5          13  -229.3202    
           1           5          12  -391.4962    
           1           4          12  -106.6645    
           1           4          11  -98.90072    
           1           4          10  -219.5825    
           1           3          10  -283.1186    
           1           3           9  -252.0670    
           1           3           8  -250.7631    
           1           2           8  -318.2550    
           1           2           7  -398.0854    
           1           2           6  -473.0694    
           1           3           6   535.6815    
           1           3           5  -459.0445    
           1           3           4  -147.3441    
           1           6          25  -109.2629    
           1           6          24  -194.3695    
           1           6          23  -160.4645    
           1           7          23  -357.6331    
           1           7          22  -362.0245    
           1           8          22  -393.6054    
           1           8          21  -69.64184    
           1           9          21  -290.7730    
           1           9          20  -331.5678    
           1           9          19  -193.7508    
           1           9          18  -428.5810    
           1          10          18   178.8655    
           1          11          17  -159.2573    
           1          12          17  -365.5781    
           1          12          16  -181.8259    
           1           5          26  -276.3907    
           1           9          31  -78.99677    
           1          10          30  -308.9041    
           1          11          29  -187.8508    
           1          11          29  -187.8508    
           1          11          28   421.4531    
           1          12          28  -465.6297    
           1          12          27  -198.6580    
           1           6          17  -77.20203    
           1           6          16  -40.05270    
           1           6          15  -188.6059    
           1           7          15  -282.6530    
           1           7          14  -218.6275    
           1           8          14  -654.8340    
           1           9          14  -153.5466    
           1           9          13  -571.0062    
           1           8          13   49.29601    
           1           8          12  -587.6432    
           1           8          11  -476.6833    
           1          12          36  -65.32371    
           1          11          36  -187.7834    
           1          11          35  -112.9014    
           1          10          35  -219.1725    
           1          10          34  -136.0978    
           1          10          33  -118.8261    
           1          10          32  -180.4841    
           1          10          31  -170.4981    
           1           9          31  -78.99677    
           1           8          31  -390.5213    
           1           8          30  -314.9545    
           1           8          29  -340.3535    
           1           8          28  -332.1227    
           1           7          28  -482.7147    
           1           7          27  -317.8945    
           1           7          26  -153.3411    
           1           6          26  -325.6689    
           1           5          26  -276.3907    
           1           5          25  -332.7830    
           1           6          25  -109.2629    
           1           6          24  -194.3695    
           1           5          24  -252.9611    
           1           5          23  -118.8046    
           1           5          22  -231.4773    
           1           5          21  -331.6631    
           1           5          20  -433.7458    
           1           4          20  -274.2423    
           1           4          19  -187.1179    
           1           5          19  -166.8063    
           1           5          18  -221.6789    
           1           5          17  -167.0559    
           1           6          17  -77.20203    
           1          12          27  -198.6580    
           1          12          26  -244.2330    
           1          12          26  -244.2330    
           1          12          25  -426.8665    
           1          12          24  -686.3231    
           1          12          23  -469.5413    
           1          12          22  -238.9783    
           1          12          22  -238.9783    
           1          13          22  -12.69876    
           1          13          22  -12.69876    
           1          13          21  -203.5454    
           1          13          21  -203.5454    
           1          14          20  -348.2198    
           1          14          19  -312.8256    
           1          15          19   31.15181    
           1          15          18  -731.8878    
           1          15          40  -226.9535    
           1          15          39  -406.7947    
           1          15          38   304.2373    
           1          14          38  -448.0299    
           1          14          37  -375.4859    
           1          13          36  -121.1483    
           1          13          37  -167.4384    
           1          12          37  -15.95180    
           1          12          36  -65.32371    
           1          15          40  -226.9535    
           1          15          39  -406.7947    
           1          15          38   304.2373    
           1          16          38  -556.0059    
           1          17          38  -1078.509    
           1          18          38   535.6978    
           1          18          37  -731.8312    
           1          18          36  -90.32251    
           1          19          36  -231.8121    
           1          19          35  -564.8753    
           1          19          34  -663.7640    
           1          20          34   535.6978    
           1          20          33  -645.1638    
           1          20          32  -114.2958    
           1          21          32  -303.5629    
           1          12          36  -65.32371    
           1          13          36  -121.1483    
           1          13          35  -261.2752    
           1          12          35  -11.62856    
           1          12          34  -83.87531    
           1          11          34   34.52474    
           1          11          33  -83.74854    
           1          11          32  -41.25254    
           1          12          32   167.2566    
           1          12          31   535.6978    
           1          13          31   84.82546    
           1          13          30  -349.0243    
           1          14          30  -495.5606    
           1          15          30  -168.4533    
           1          15          29  -341.1577    
           1          17          29   474.2431    
           1          16          29  -805.7701    
           1          16          28  -237.5753    
           1          17          28  -607.3531    
           1          18          28   165.2286    
           1          18          27   9.112483    
           1          19          27  -92.22900    
           1          12          35  -11.62856    
           1          12          34  -83.87531    
           1          13          34  -269.3808    
           1          13          33  -173.2498    
           1          14          33  -332.0883    
           1          15          33  -714.6689    
           1          16          33  -466.0043    
           1          17          33   46.03513    
           1          17          32  -96.24285    
           1          18          32  -766.9471    
           1          19          32   535.6978    
           1          19          31  -465.0610    
           1          19          30  -694.2428    
           1          20          30   182.8440    
           1          20          29   163.7275    
           1          21          29  -401.0693    
           1          22          29   196.5252    
           1          22          28  -360.9096    
 
 month:           3 year:        1985
 Layer, Row, Column, Rate
           1           4          11  -284.0060    
           1           6          17  -173.7891    
           1           6          16  -171.0350    
           1           5          16  -485.2341    
           1           5          15  -430.7331    
           1           5          14  -636.6826    
           1           5          13  -546.0860    
           1           5          12  -633.0187    
           1           4          12  -748.2516    
           1           4          11  -284.0060    
           1           4          10  -429.5922    
           1           3          10  -799.6516    
           1           3           9  -600.4617    
           1           3           8  -547.1793    
           1           2           8  -694.4538    
           1           2           7  -706.9828    
           1           2           6  -873.3988    
           1           3           6   327.8341    
           1           3           5  -728.5211    
           1           3           4  -590.7344    
           1           6          25  -243.0396    
           1           6          24  -338.5025    
           1           6          23  -393.7434    
           1           7          23  -501.1814    
           1           7          22  -565.6930    
           1           8          22  -424.9259    
           1           8          21  -70.73254    
           1           9          21  -254.3960    
           1           9          20  -320.3465    
           1           9          19  -191.2756    
           1           9          18  -457.8357    
           1          10          18   207.8489    
           1          11          17  -145.7950    
           1          12          17  -325.1185    
           1          12          16  -176.7174    
           1           5          26  -575.2670    
           1           9          31  -172.2982    
           1          10          30  -512.3897    
           1          11          29  -286.9992    
           1          11          29  -286.9992    
           1          11          28   386.2565    
           1          12          28  -683.9096    
           1          12          27  -395.4799    
           1           6          17  -173.7891    
           1           6          16  -171.0350    
           1           6          15  -501.3761    
           1           7          15  -635.6849    
           1           7          14  -541.1503    
           1           8          14  -915.3998    
           1           9          14  -355.8536    
           1           9          13  -1012.033    
           1           8          13  -316.1139    
           1           8          12  -866.1227    
           1           8          11  -738.1979    
           1          12          36  -93.80888    
           1          11          36  -304.0066    
           1          11          35  -193.7548    
           1          10          35  -272.8878    
           1          10          34  -424.7661    
           1          10          33  -389.7734    
           1          10          32  -383.7570    
           1          10          31  -378.8319    
           1           9          31  -172.2982    
           1           8          31  -767.6526    
           1           8          30  -735.2509    
           1           8          29  -672.4964    
           1           8          28  -721.4036    
           1           7          28  -962.8526    
           1           7          27  -748.5681    
           1           7          26  -535.0244    
           1           6          26  -686.8666    
           1           5          26  -575.2670    
           1           5          25  -755.0433    
           1           6          25  -243.0396    
           1           6          24  -338.5025    
           1           5          24  -571.9771    
           1           5          23  -416.1947    
           1           5          22  -575.6703    
           1           5          21  -688.6638    
           1           5          20  -647.0261    
           1           4          20  -629.1319    
           1           4          19  -578.9996    
           1           5          19  -417.3512    
           1           5          18  -603.8489    
           1           5          17  -470.9377    
           1           6          17  -173.7891    
           1          12          27  -395.4799    
           1          12          26  -443.5315    
           1          12          26  -443.5315    
           1          12          25  -754.7397    
           1          12          24  -891.8953    
           1          12          23  -711.7265    
           1          12          22  -360.5139    
           1          12          22  -360.5139    
           1          13          22  -65.75986    
           1          13          22  -65.75986    
           1          13          21  -344.8341    
           1          13          21  -344.8341    
           1          14          20  -440.1421    
           1          14          19  -327.4415    
           1          15          19   18.81963    
           1          15          18  -719.5261    
           1          15          40  -346.2477    
           1          15          39  -493.8316    
           1          15          38   90.94207    
           1          14          38  -645.7181    
           1          14          37  -797.1827    
           1          13          36  -271.5882    
           1          13          37  -276.3997    
           1          12          37  -102.9947    
           1          12          36  -93.80888    
           1          15          40  -346.2477    
           1          15          39  -493.8316    
           1          15          38   90.94207    
           1          16          38  -771.3449    
           1          17          38  -1308.586    
           1          18          38   803.3163    
           1          18          37  -998.9641    
           1          18          36  -371.6714    
           1          19          36  -468.6840    
           1          19          35  -862.0969    
           1          19          34  -871.2372    
           1          20          34   388.3831    
           1          20          33  -800.8181    
           1          20          32  -166.1900    
           1          21          32  -367.5453    
           1          12          36  -93.80888    
           1          13          36  -271.5882    
           1          13          35  -609.2845    
           1          12          35  -68.43943    
           1          12          34  -171.7899    
           1          11          34  -127.9505    
           1          11          33  -184.6810    
           1          11          32  -121.2904    
           1          12          32   124.5241    
           1          12          31   803.3163    
           1          13          31   22.14662    
           1          13          30  -344.4284    
           1          14          30  -500.2934    
           1          15          30  -254.0466    
           1          15          29  -327.3658    
           1          17          29   663.9936    
           1          16          29  -861.2343    
           1          16          28  -234.8142    
           1          17          28  -719.4642    
           1          18          28   24.86032    
           1          18          27  -37.18680    
           1          19          27  -207.4501    
           1          12          35  -68.43943    
           1          12          34  -171.7899    
           1          13          34  -415.7073    
           1          13          33  -181.6604    
           1          14          33  -329.6452    
           1          15          33  -727.9811    
           1          16          33  -640.9289    
           1          17          33  -83.17613    
           1          17          32  -247.8121    
           1          18          32  -843.7990    
           1          19          32   803.3163    
           1          19          31  -587.4514    
           1          19          30  -761.0494    
           1          20          30   10.88895    
           1          20          29   52.72558    
           1          21          29  -426.2016    
           1          22          29   163.6809    
           1          22          28  -407.5440    
 
 month:           4 year:        1985
 Layer, Row, Column, Rate
           1           4          11  -77.76525    
           1           6          17  -64.23147    
           1           6          16  -32.25491    
           1           5          16  -216.9256    
           1           5          15  -87.57157    
           1           5          14  -211.2090    
           1           5          13  -205.1360    
           1           5          12  -378.7282    
           1           4          12  -66.33057    
           1           4          11  -77.76525    
           1           4          10  -229.9859    
           1           3          10  -208.7446    
           1           3           9  -184.7176    
           1           3           8  -199.1952    
           1           2           8  -172.0240    
           1           2           7  -354.1160    
           1           2           6  -428.0832    
           1           3           6   478.3119    
           1           3           5  -440.6454    
           1           3           4  -253.2350    
           1           6          25  -51.79033    
           1           6          24  -124.7533    
           1           6          23  -32.05380    
           1           7          23  -225.9241    
           1           7          22  -221.2023    
           1           8          22  -262.2730    
           1           8          21  -68.57713    
           1           9          21  -184.7072    
           1           9          20  -270.2780    
           1           9          19  -174.2386    
           1           9          18  -466.0224    
           1          10          18   232.6037    
           1          11          17  -134.5174    
           1          12          17  -293.2402    
           1          12          16  -166.4834    
           1           5          26  -240.0757    
           1           9          31  -63.08472    
           1          10          30  -177.4751    
           1          11          29  -97.10656    
           1          11          29  -97.10656    
           1          11          28   431.6710    
           1          12          28  -301.6620    
           1          12          27  -131.5972    
           1           6          17  -64.23147    
           1           6          16  -32.25491    
           1           6          15  -37.56786    
           1           7          15  -226.6965    
           1           7          14  -113.1765    
           1           8          14  -620.2789    
           1           9          14  -12.54597    
           1           9          13  -354.5034    
           1           8          13   107.5172    
           1           8          12  -350.9243    
           1           8          11  -342.7256    
           1          12          36  -52.90085    
           1          11          36  -159.9189    
           1          11          35  -103.1058    
           1          10          35  -243.9945    
           1          10          34  -73.63221    
           1          10          33  -16.87786    
           1          10          32  -113.8992    
           1          10          31  -32.21709    