 Yearly Averaged GW/SW Rates for MODFLOW
 
 year:        1985
 Layer, Row, Column, Rate
           1           4          11  -276.5820    
           1           6          17  -148.0881    
           1           6          16  -146.1385    
           1           5          16  -519.8054    
           1           5          15  -413.3014    
           1           5          14  -578.2846    
           1           5          13  -493.1941    
           1           5          12  -694.5726    
           1           4          12  -607.4849    
           1           4          11  -276.5820    
           1           4          10  -636.4697    
           1           3          10  -760.0688    
           1           3           9  -577.1401    
           1           3           8  -625.5881    
           1           2           8  -580.6340    
           1           2           7  -759.8702    
           1           2           6  -993.7020    
           1           3           6   177.5874    
           1           3           5  -752.0498    
           1           3           4  -826.0703    
           1           6          25  -214.3442    
           1           6          24  -279.6821    
           1           6          23  -295.9254    
           1           7          23  -395.0000    
           1           7          22  -466.3065    
           1           8          22  -320.8297    
           1           8          21  -77.04459    
           1           9          21  -185.9750    
           1           9          20  -269.4316    
           1           9          19  -167.7575    
           1           9          18  -444.7973    
           1          10          18   253.1009    
           1          11          17  -113.8418    
           1          12          17  -275.0625    
           1          12          16  -135.2942    
           1           5          26  -533.2393    
           1           9          31  -171.9000    
           1          10          30  -418.8431    
           1          11          29  -212.9670    
           1          11          29  -212.9670    
           1          11          28   287.9166    
           1          12          28  -521.1758    
           1          12          27  -302.7084    
           1           6          17  -148.0881    
           1           6          16  -146.1385    
           1           6          15  -406.8147    
           1           7          15  -544.9453    
           1           7          14  -488.4152    
           1           8          14  -856.2383    
           1           9          14  -220.2074    
           1           9          13  -864.5346    
           1           8          13  -249.5545    
           1           8          12  -773.7347    
           1           8          11  -890.1446    
           1          12          36  -83.01221    
           1          11          36  -312.7973    
           1          11          35  -177.5684    
           1          10          35  -409.0802    
           1          10          34  -334.6964    
           1          10          33  -297.6394    
           1          10          32  -372.8951    
           1          10          31  -288.1837    
           1           9          31  -171.9000    
           1           8          31  -816.1775    
           1           8          30  -694.9136    
           1           8          29  -664.1106    
           1           8          28  -587.6633    
           1           7          28  -932.1731    
           1           7          27  -609.9236    
           1           7          26  -428.5317    
           1           6          26  -596.9709    
           1           5          26  -533.2393    
           1           5          25  -665.2308    
           1           6          25  -214.3442    
           1           6          24  -279.6821    
           1           5          24  -577.6845    
           1           5          23  -386.4826    
           1           5          22  -492.4004    
           1           5          21  -555.3642    
           1           5          20  -507.8897    
           1           4          20  -642.5540    
           1           4          19  -611.8710    
           1           5          19  -333.2256    
           1           5          18  -564.2102    
           1           5          17  -454.4801    
           1           6          17  -148.0881    
           1          12          27  -302.7084    
           1          12          26  -352.6460    
           1          12          26  -352.6460    
           1          12          25  -628.8255    
           1          12          24  -735.7271    
           1          12          23  -646.8292    
           1          12          22  -337.4235    
           1          12          22  -337.4235    
           1          13          22  -33.80201    
           1          13          22  -33.80201    
           1          13          21  -306.9199    
           1          13          21  -306.9199    
           1          14          20  -470.2347    
           1          14          19  -372.8959    
           1          15          19  -48.87711    
           1          15          18  -740.6022    
           1          15          40  -317.7507    
           1          15          39  -434.0373    
           1          15          38   151.1496    
           1          14          38  -617.2054    
           1          14          37  -691.6096    
           1          13          36  -238.5622    
           1          13          37  -266.9489    
           1          12          37  -131.9332    
           1          12          36  -83.01221    
           1          15          40  -317.7507    
           1          15          39  -434.0373    
           1          15          38   151.1496    
           1          16          38  -765.3554    
           1          17          38  -1321.033    
           1          18          38   312.2014    
           1          18          37  -1074.720    
           1          18          36  -437.2435    
           1          19          36  -481.2262    
           1          19          35  -821.6592    
           1          19          34  -850.5315    
           1          20          34   224.5715    
           1          20          33  -758.2152    
           1          20          32  -161.9181    
           1          21          32  -362.1383    
           1          12          36  -83.01221    
           1          13          36  -238.5622    
           1          13          35  -536.6594    
           1          12          35  -52.15366    
           1          12          34  -152.0396    
           1          11          34  -86.98759    
           1          11          33  -176.4121    
           1          11          32  -101.0743    
           1          12          32   138.0109    
           1          12          31   640.1208    
           1          13          31   82.65477    
           1          13          30  -297.7700    
           1          14          30  -441.5520    
           1          15          30  -131.6261    
           1          15          29  -286.6882    
           1          17          29   527.6667    
           1          16          29  -752.1348    
           1          16          28  -219.5760    
           1          17          28  -751.5287    
           1          18          28   91.55655    
           1          18          27  -253.7221    
           1          19          27  -376.3182    
           1          12          35  -52.15366    
           1          12          34  -152.0396    
           1          13          34  -310.0463    
           1          13          33  -172.2150    
           1          14          33  -295.2736    
           1          15          33  -670.2465    
           1          16          33  -621.0085    
           1          17          33  -42.39631    
           1          17          32  -188.2809    
           1          18          32  -776.8226    
           1          19          32   453.7907    
           1          19          31  -492.0402    
           1          19          30  -724.3470    
           1          20          30   76.58453    
           1          20          29   34.11175    
           1          21          29  -417.6991    
           1          22          29   159.2693    
           1          22          28  -434.2621    
 
