 Yearly Averaged Recharge Values for MODFLOW
 
 year:        1985
  2.90247E+01  1.08240E+02  2.63306E+02  2.23049E+02  2.61285E+02  2.68847E+02  2.76194E+02  1.42332E+02  5.36685E+01  3.10408E+01  2.54913E+01  0.00000E+00  0.00000E+00  0.00000E+00  0.00000E+00  0.00000E+00  0.00000E+00  0.00000E+00  0.00000E+00  0.00000E+00  0.00000E+00  0.00000E+00  0.00000E+00  0.00000E+00  0.00000E+00  0.00000E+00  0.00000E+00  0.00000E+00  0.00000E+00  0.00000E+00  0.00000E+00  0.00000E+00  0.00000E+00  0.00000E+00  0.00000E+00  0.00000E+00  0.00000E+00  0.00000E+00  0.00000E+00  0.00000E+00
  1.74781E+01  7.59665E+01  1.49601E+02  2.28697E+02  2.23705E+02  2.98108E+02  2.73092E+02  3.12410E+02  3.16625E+02  2.35803E+02  2.47713E+02  1.07088E+02  1.94247E+02  1.29601E+02  3.55687E+01  1.21919E+00  0.00000E+00  0.00000E+00  1.60452E+02  1.28744E+02  1.77054E+02  1.78696E+02  1.68307E+02  0.00000E+00  0.00000E+00  0.00000E+00  0.00000E+00  0.00000E+00  0.00000E+00  0.00000E+00  0.00000E+00  0.00000E+00  0.00000E+00  0.00000E+00  0.00000E+00  0.00000E+00  0.00000E+00  0.00000E+00  0.00000E+00  0.00000E+00
  2.36898E+01  8.65145E+01  1.98519E+02  1.89360E+02  1.79083E+02  1.74448E+02  2.42808E+02  2.68347E+02  2.26589E+02  3.28202E+02  3.62445E+02  2.76217E+02  3.01462E+02  2.91668E+02  2.60974E+02  1.28545E+02  1.54451E+02  1.70143E+02  1.43509E+02  1.76327E+02  1.60897E+02  1.17201E+02  1.80473E+02  6.68186E+01  1.25776E+02  2.65364E+02  0.00000E+00  0.00000E+00  0.00000E+00  0.00000E+00  0.00000E+00  0.00000E+00  0.00000E+00  0.00000E+00  0.00000E+00  0.00000E+00  0.00000E+00  0.00000E+00  0.00000E+00  0.00000E+00
  0.00000E+00  2.96554E+01  1.07291E+02  1.34831E+02  8.26231E+01  1.37342E+02  1.87196E+02  1.92625E+02  2.64192E+02  1.67723E+02  2.05801E+02  2.66267E+02  3.47226E+02  2.92923E+02  2.94116E+02  1.63008E+02  9.21265E+01  1.91269E+02  2.98770E+02  2.64070E+02  1.67597E+02  9.22372E+01  1.30885E+02  7.77575E+01  2.16152E+02  2.86359E+02  2.31296E+02  8.16082E+01  0.00000E+00  0.00000E+00  0.00000E+00  0.00000E+00  0.00000E+00  0.00000E+00  0.00000E+00  0.00000E+00  0.00000E+00  0.00000E+00  0.00000E+00  0.00000E+00
  0.00000E+00  0.00000E+00  3.98164E+01  2.26178E+01  1.14300E+01  3.13097E+01  4.05577E+01  9.22957E+01  2.33060E+02  2.29033E+02  3.16277E+02  2.02284E+02  1.72273E+02  2.11144E+02  1.91120E+02  2.02485E+02  2.84276E+02  2.59981E+02  2.39179E+02  2.38101E+02  2.57170E+02  2.77965E+02  2.05737E+02  2.88337E+02  3.25593E+02  3.14726E+02  1.97469E+02  2.56937E+02  2.07092E+02  1.75690E+02  2.51644E+02  3.00895E+01  0.00000E+00  0.00000E+00  0.00000E+00  0.00000E+00  0.00000E+00  0.00000E+00  0.00000E+00  0.00000E+00
  0.00000E+00  0.00000E+00  0.00000E+00  0.00000E+00  7.19808E-01  1.22070E+01  1.70358E+01  4.31242E+01  1.33952E+02  1.67257E+02  2.56349E+02  2.67038E+02  2.40125E+02  2.74140E+02  3.46762E+02  1.60920E+02  2.39892E+02  1.83616E+02  3.24077E+01  8.02148E+01  1.29859E+02  1.12450E+02  2.81686E+02  3.19418E+02  2.95194E+02  1.99320E+02  3.28622E+02  1.95255E+02  1.09522E+02  1.24817E+02  2.45387E+02  1.87546E+02  9.34895E+01  0.00000E+00  0.00000E+00  0.00000E+00  0.00000E+00  0.00000E+00  0.00000E+00  0.00000E+00
  0.00000E+00  0.00000E+00  0.00000E+00  0.00000E+00  0.00000E+00  4.33619E+00  3.55571E+01  3.21365E+01  8.78793E+01  1.38462E+02  2.38031E+02  1.44324E+02  2.23905E+02  2.97029E+02  2.50657E+02  3.06292E+02  9.23052E+01  6.14485E+01  1.61877E+01  1.32083E+01  4.95853E+01  2.57931E+02  1.94290E+02  1.76793E+02  1.70332E+02  3.63948E+02  2.54159E+02  2.91310E+02  2.71108E+02  3.04900E+02  3.06824E+02  1.86530E+02  1.87670E+02  1.95441E+02  4.77003E+01  0.00000E+00  0.00000E+00  0.00000E+00  0.00000E+00  0.00000E+00
  0.00000E+00  0.00000E+00  0.00000E+00  0.00000E+00  0.00000E+00  0.00000E+00  9.28951E+00  1.80436E+01  1.23805E+01  8.94868E+01  3.09885E+02  3.81340E+02  3.06172E+02  2.38888E+02  2.57221E+02  1.95982E+02  1.51797E+01  9.72053E+00  1.42935E+01  1.63142E+01  1.45259E+01  9.51653E+01  7.74504E+01  8.01589E+00  7.97715E+01  1.12000E+02  2.79116E+02  3.47052E+02  2.70657E+02  2.78563E+02  2.34657E+02  4.47977E+01  1.00741E+02  1.81326E+02  6.58840E+01  2.12978E+02  2.64377E+01  0.00000E+00  0.00000E+00  0.00000E+00
  0.00000E+00  0.00000E+00  0.00000E+00  0.00000E+00  0.00000E+00  5.54926E+00  5.47341E-01  8.36325E+00  2.46192E+01  4.30457E+01  4.77755E+01  1.77328E+02  3.98835E+02  2.53522E+02  3.64374E+01  2.60298E+01  1.07864E+01  3.33154E-01  1.58845E+01  3.24547E+01  3.64758E+01  2.97677E+01  2.35934E+01  6.69460E+00  1.80730E+01  1.89315E+01  5.34369E+01  1.43747E+02  2.61672E+02  3.56687E+02  1.73632E+02  9.31796E+01  1.62090E+02  1.75092E+02  1.05330E+02  1.69934E+02  2.63212E+02  2.77271E-01  0.00000E+00  0.00000E+00
  0.00000E+00  0.00000E+00  0.00000E+00  0.00000E+00  0.00000E+00  0.00000E+00  2.50081E+01  9.40165E+01  8.20403E+01  9.19212E+01  3.92423E+01  9.37239E+01  3.33628E+02  5.91310E+01  2.04545E+01  1.26171E+01  5.91134E+00  9.13336E+00  1.18201E+01  2.09425E+01  3.48420E+01  2.49824E+01  1.85504E+01  2.20547E+01  1.84945E+01  2.39834E+01  5.44535E+01  1.27857E+02  3.14277E+02  2.57257E+02  2.63148E+02  2.15598E+02  2.26518E+02  2.08134E+02  4.12160E+01  5.56060E+01  1.46511E+02  3.78291E+01  1.94868E+02  0.00000E+00
  0.00000E+00  0.00000E+00  0.00000E+00  0.00000E+00  0.00000E+00  0.00000E+00  0.00000E+00  4.53298E+01  1.99949E+02  1.43379E+02  1.45926E+02  1.39702E+02  4.39600E+01  2.15911E+01  1.60109E+01  5.65226E+00  2.77495E+00  2.05757E+01  4.90478E+00  2.19005E+01  2.15980E+01  6.81891E+01  4.23721E+01  2.42563E+01  3.64185E+01  2.05721E+01  5.79153E+01  2.68197E+02  2.60160E+02  1.42908E+02  3.72628E+01  1.13387E+02  1.23123E+02  1.59798E+02  7.77151E+01  1.19210E+02  1.48681E+01  3.92214E+01  4.96410E+01  0.00000E+00
  0.00000E+00  0.00000E+00  0.00000E+00  0.00000E+00  0.00000E+00  0.00000E+00  0.00000E+00  0.00000E+00  0.00000E+00  3.41765E+01  2.83643E+01  2.83445E+01  2.41079E+01  5.64605E+00  1.17229E+01  7.34100E+00  1.04162E+01  1.62748E+01  1.86074E+01  2.60811E+01  1.42109E+02  1.87342E+02  2.06150E+02  2.30249E+02  2.22281E+02  2.05291E+02  2.56602E+02  2.58924E+02  9.42887E+01  2.62229E+01  6.36715E+01  5.84158E+01  5.24074E+01  1.92179E+02  1.49245E+02  9.29881E+01  9.42879E+01  4.15387E+01  2.81150E+01  0.00000E+00
  0.00000E+00  0.00000E+00  0.00000E+00  0.00000E+00  0.00000E+00  0.00000E+00  0.00000E+00  0.00000E+00  0.00000E+00  0.00000E+00  0.00000E+00  0.00000E+00  0.00000E+00  1.26923E+01  3.22785E+01  2.06558E+01  2.27737E+01  8.51289E+00  1.84536E+01  4.80841E+01  1.98358E+02  1.57272E+02  9.90978E+01  1.43564E+02  2.20523E+02  3.02706E+02  3.05634E+02  2.12005E+02  1.46653E+01  7.70156E+00  8.33762E+01  1.91444E+01  3.04459E+01  1.58784E+02  2.78998E+02  2.84888E+02  9.43507E+01  4.43332E+01  7.08559E+01  4.31254E+00
  0.00000E+00  0.00000E+00  0.00000E+00  0.00000E+00  0.00000E+00  0.00000E+00  0.00000E+00  0.00000E+00  0.00000E+00  0.00000E+00  0.00000E+00  0.00000E+00  0.00000E+00  0.00000E+00  0.00000E+00  9.18246E+00  1.10182E+01  1.59920E+01  1.04775E+01  4.87886E+01  1.35114E+02  7.76419E+01  8.71800E+01  2.74094E+01  1.89924E+02  2.11317E+02  2.26785E+02  1.52644E+02  4.15640E+01  2.59285E+01  1.14882E+02  2.60173E+01  2.42555E+01  2.37438E+02  2.74103E+02  3.14334E+02  2.80087E+02  1.17228E+02  7.19660E+01  4.93357E+01
  0.00000E+00  0.00000E+00  0.00000E+00  0.00000E+00  0.00000E+00  0.00000E+00  0.00000E+00  0.00000E+00  0.00000E+00  0.00000E+00  0.00000E+00  0.00000E+00  0.00000E+00  0.00000E+00  0.00000E+00  1.81604E+01  4.18131E+00  7.68585E+00  4.28742E+00  1.30134E+01  1.34865E+02  1.01140E+02  4.94461E+01  2.35706E+01  5.38810E+01  7.44053E+01  5.92667E+01  3.86031E+01  5.44415E+00  1.27717E+02  6.09422E+01  2.06622E+01  5.00468E+01  2.57925E+02  2.56383E+02  1.57766E+02  2.50107E+02  2.47065E+02  1.33091E+02  1.55749E+02
  0.00000E+00  0.00000E+00  0.00000E+00  0.00000E+00  0.00000E+00  0.00000E+00  0.00000E+00  0.00000E+00  0.00000E+00  0.00000E+00  0.00000E+00  0.00000E+00  0.00000E+00  0.00000E+00  0.00000E+00  2.98033E+00  2.70964E+01  2.02224E+01  3.13954E+01  8.55606E+01  1.49945E+02  2.12746E+01  6.02874E+01  1.17322E+02  5.83075E+01  2.23761E+00  0.00000E+00  0.00000E+00  7.88677E+01  2.09579E+02  1.71433E+02  9.53356E+01  1.39124E+02  2.66328E+02  1.97177E+02  2.98361E+02  3.37001E+02  1.95734E+02  3.67499E+02  0.00000E+00
  0.00000E+00  0.00000E+00  0.00000E+00  0.00000E+00  0.00000E+00  0.00000E+00  0.00000E+00  0.00000E+00  0.00000E+00  0.00000E+00  0.00000E+00  0.00000E+00  0.00000E+00  0.00000E+00  0.00000E+00  0.00000E+00  0.00000E+00  3.25614E+01  1.62533E+02  1.02102E+02  8.81289E+01  7.16251E+01  1.67336E+02  7.71939E+01  9.49426E+01  5.29470E+01  2.87389E+01  1.18312E+02  2.09383E+02  6.76134E+01  1.08023E+02  1.45060E+02  1.52281E+02  2.47643E+02  2.69346E+02  2.17918E+02  2.73974E+02  2.05938E+02  3.45214E+02  0.00000E+00
  0.00000E+00  0.00000E+00  0.00000E+00  0.00000E+00  0.00000E+00  0.00000E+00  0.00000E+00  0.00000E+00  0.00000E+00  0.00000E+00  0.00000E+00  0.00000E+00  0.00000E+00  0.00000E+00  0.00000E+00  0.00000E+00  0.00000E+00  0.00000E+00  0.00000E+00  1.81630E+02  1.79076E+02  9.31301E+01  8.51338E+01  7.98042E+01  1.25430E+02  1.28258E+02  5.03313E+01  1.47878E+02  1.55166E+02  1.64419E+01  5.62975E+01  8.53223E+01  1.89940E+02  2.58942E+02  2.24144E+02  2.89374E+02  2.13990E+02  2.66872E+02  0.00000E+00  0.00000E+00
  0.00000E+00  0.00000E+00  0.00000E+00  0.00000E+00  0.00000E+00  0.00000E+00  0.00000E+00  0.00000E+00  0.00000E+00  0.00000E+00  0.00000E+00  0.00000E+00  0.00000E+00  0.00000E+00  0.00000E+00  0.00000E+00  0.00000E+00  0.00000E+00  0.00000E+00  0.00000E+00  7.91724E+01  4.38273E+01  3.44879E+01  7.99944E+01  9.49782E+01  1.04504E+02  1.30307E+02  3.11370E+01  2.00247E+00  7.50587E+01  1.18704E+02  2.23367E+02  2.25523E+02  1.90072E+02  2.14525E+02  2.28473E+02  3.44071E+02  2.67592E+02  0.00000E+00  0.00000E+00
  0.00000E+00  0.00000E+00  0.00000E+00  0.00000E+00  0.00000E+00  0.00000E+00  0.00000E+00  0.00000E+00  0.00000E+00  0.00000E+00  0.00000E+00  0.00000E+00  0.00000E+00  0.00000E+00  0.00000E+00  0.00000E+00  0.00000E+00  0.00000E+00  0.00000E+00  0.00000E+00  0.00000E+00  0.00000E+00  3.31887E+01  5.35620E+01  1.16266E+02  5.66227E+01  1.19177E+02  6.59648E+01  1.07592E+02  2.20643E+02  1.52016E+02  6.12462E+01  1.59449E+02  2.54406E+02  2.01381E+02  2.71898E+02  0.00000E+00  0.00000E+00  0.00000E+00  0.00000E+00
  0.00000E+00  0.00000E+00  0.00000E+00  0.00000E+00  0.00000E+00  0.00000E+00  0.00000E+00  0.00000E+00  0.00000E+00  0.00000E+00  0.00000E+00  0.00000E+00  0.00000E+00  0.00000E+00  0.00000E+00  0.00000E+00  0.00000E+00  0.00000E+00  0.00000E+00  0.00000E+00  0.00000E+00  0.00000E+00  0.00000E+00  8.00299E-01  7.34718E+01  3.39225E+00  4.38554E+01  6.66821E+01  6.49829E+01  9.68915E+01  1.06174E+01  8.80289E+01  2.96571E+02  1.51650E+02  7.67425E+00  0.00000E+00  0.00000E+00  0.00000E+00  0.00000E+00  0.00000E+00
  0.00000E+00  0.00000E+00  0.00000E+00  0.00000E+00  0.00000E+00  0.00000E+00  0.00000E+00  0.00000E+00  0.00000E+00  0.00000E+00  0.00000E+00  0.00000E+00  0.00000E+00  0.00000E+00  0.00000E+00  0.00000E+00  0.00000E+00  0.00000E+00  0.00000E+00  0.00000E+00  0.00000E+00  0.00000E+00  0.00000E+00  0.00000E+00  7.00186E+00  1.13085E+01  2.82502E+01  3.64737E+01  7.40294E+01  1.35653E+01  7.70795E+00  3.01496E+01  4.23468E+01  0.00000E+00  0.00000E+00  0.00000E+00  0.00000E+00  0.00000E+00  0.00000E+00  0.00000E+00
  0.00000E+00  0.00000E+00  0.00000E+00  0.00000E+00  0.00000E+00  0.00000E+00  0.00000E+00  0.00000E+00  0.00000E+00  0.00000E+00  0.00000E+00  0.00000E+00  0.00000E+00  0.00000E+00  0.00000E+00  0.00000E+00  0.00000E+00  0.00000E+00  0.00000E+00  0.00000E+00  0.00000E+00  0.00000E+00  0.00000E+00  0.00000E+00  0.00000E+00  5.44359E+00  8.59827E+01  2.14813E+00  0.00000E+00  0.00000E+00  0.00000E+00  0.00000E+00  0.00000E+00  0.00000E+00  0.00000E+00  0.00000E+00  0.00000E+00  0.00000E+00  0.00000E+00  0.00000E+00
 
