 Groundwater/Surface Water exchange (L3/T)
 for each MODFLOW River Cell
 Positive: River water seeps to the aquifer
 Negative: Groundwater flows from aquifer to river
 
 Day:           1
 Layer, Row, Column, Flow Rate
           1           4          11  0.0000000E+00
           1           6          17  0.0000000E+00
           1           6          16  0.0000000E+00
           1           5          16  0.0000000E+00
           1           5          15  0.0000000E+00
           1           5          14  0.0000000E+00
           1           5          13  0.0000000E+00
           1           5          12  0.0000000E+00
           1           4          12  0.0000000E+00
           1           4          11  0.0000000E+00
           1           4          10  0.0000000E+00
           1           3          10  0.0000000E+00
           1           3           9  0.0000000E+00
           1           3           8  0.0000000E+00
           1           2           8  0.0000000E+00
           1           2           7  0.0000000E+00
           1           2           6  0.0000000E+00
           1           3           6  0.0000000E+00
           1           3           5  0.0000000E+00
           1           3           4  0.0000000E+00
           1           6          25  0.0000000E+00
           1           6          24  0.0000000E+00
           1           6          23  0.0000000E+00
           1           7          23  0.0000000E+00
           1           7          22  0.0000000E+00
           1           8          22  0.0000000E+00
           1           8          21  0.0000000E+00
           1           9          21  0.0000000E+00
           1           9          20  0.0000000E+00
           1           9          19  0.0000000E+00
           1           9          18  0.0000000E+00
           1          10          18  0.0000000E+00
           1          11          17  0.0000000E+00
           1          12          17  0.0000000E+00
           1          12          16  0.0000000E+00
           1           5          26  0.0000000E+00
           1           9          31  0.0000000E+00
           1          10          30  0.0000000E+00
           1          11          29  0.0000000E+00
           1          11          29  0.0000000E+00
           1          11          28  0.0000000E+00
           1          12          28  0.0000000E+00
           1          12          27  0.0000000E+00
           1           6          17  0.0000000E+00
           1           6          16  0.0000000E+00
           1           6          15  0.0000000E+00
           1           7          15  0.0000000E+00
           1           7          14  0.0000000E+00
           1           8          14  0.0000000E+00
           1           9          14  0.0000000E+00
           1           9          13  0.0000000E+00
           1           8          13  0.0000000E+00
           1           8          12  0.0000000E+00
           1           8          11  0.0000000E+00
           1          12          36  0.0000000E+00
           1          11          36  0.0000000E+00
           1          11          35  0.0000000E+00
           1          10          35  0.0000000E+00
           1          10          34  0.0000000E+00
           1          10          33  0.0000000E+00
           1          10          32  0.0000000E+00
           1          10          31  0.0000000E+00
           1           9          31  0.0000000E+00
           1           8          31  0.0000000E+00
           1           8          30  0.0000000E+00
           1           8          29  0.0000000E+00
           1           8          28  0.0000000E+00
           1           7          28  0.0000000E+00
           1           7          27  0.0000000E+00
           1           7          26  0.0000000E+00
           1           6          26  0.0000000E+00
           1           5          26  0.0000000E+00
           1           5          25  0.0000000E+00
           1           6          25  0.0000000E+00
           1           6          24  0.0000000E+00
           1           5          24  0.0000000E+00
           1           5          23  0.0000000E+00
           1           5          22  0.0000000E+00
           1           5          21  0.0000000E+00
           1           5          20  0.0000000E+00
           1           4          20  0.0000000E+00
           1           4          19  0.0000000E+00
           1           5          19  0.0000000E+00
           1           5          18  0.0000000E+00
           1           5          17  0.0000000E+00
           1           6          17  0.0000000E+00
           1          12          27  0.0000000E+00
           1          12          26  0.0000000E+00
           1          12          26  0.0000000E+00
           1          12          25  0.0000000E+00
           1          12          24  0.0000000E+00
           1          12          23  0.0000000E+00
           1          12          22  0.0000000E+00
           1          12          22  0.0000000E+00
           1          13          22  0.0000000E+00
           1          13          22  0.0000000E+00
           1          13          21  0.0000000E+00
           1          13          21  0.0000000E+00
           1          14          20  0.0000000E+00
           1          14          19  0.0000000E+00
           1          15          19  0.0000000E+00
           1          15          18  0.0000000E+00
           1          15          40  0.0000000E+00
           1          15          39  0.0000000E+00
           1          15          38  0.0000000E+00
           1          14          38  0.0000000E+00
           1          14          37  0.0000000E+00
           1          13          36  0.0000000E+00
           1          13          37  0.0000000E+00
           1          12          37  0.0000000E+00
           1          12          36  0.0000000E+00
           1          15          40  0.0000000E+00
           1          15          39  0.0000000E+00
           1          15          38  0.0000000E+00
           1          16          38  0.0000000E+00
           1          17          38  -158.1757    
           1          18          38  0.0000000E+00
           1          18          37  0.0000000E+00
           1          18          36  0.0000000E+00
           1          19          36  0.0000000E+00
           1          19          35  0.0000000E+00
           1          19          34  0.0000000E+00
           1          20          34  0.0000000E+00
           1          20          33  0.0000000E+00
           1          20          32  0.0000000E+00
           1          21          32  0.0000000E+00
           1          12          36  0.0000000E+00
           1          13          36  0.0000000E+00
           1          13          35  0.0000000E+00
           1          12          35  0.0000000E+00
           1          12          34  0.0000000E+00
           1          11          34  0.0000000E+00
           1          11          33  0.0000000E+00
           1          11          32  0.0000000E+00
           1          12          32  0.0000000E+00
           1          12          31  0.0000000E+00
           1          13          31  0.0000000E+00
           1          13          30  0.0000000E+00
           1          14          30  0.0000000E+00
           1          15          30  0.0000000E+00
           1          15          29  0.0000000E+00
           1          17          29  0.0000000E+00
           1          16          29  0.0000000E+00
           1          16          28  0.0000000E+00
           1          17          28  0.0000000E+00
           1          18          28  0.0000000E+00
           1          18          27  0.0000000E+00
           1          19          27  0.0000000E+00
           1          12          35  0.0000000E+00
           1          12          34  0.0000000E+00
           1          13          34  0.0000000E+00
           1          13          33  0.0000000E+00
           1          14          33  0.0000000E+00
           1          15          33  0.0000000E+00
           1          16          33  0.0000000E+00
           1          17          33  0.0000000E+00
           1          17          32  0.0000000E+00
           1          18          32  0.0000000E+00
           1          19          32  0.0000000E+00
           1          19          31  0.0000000E+00
           1          19          30  0.0000000E+00
           1          20          30  0.0000000E+00
           1          20          29  0.0000000E+00
           1          21          29  0.0000000E+00
           1          22          29  0.0000000E+00
           1          22          28  0.0000000E+00
