 MODFLOW River Stage (L) (for each River Cell)
 --Calculated from SWAT Channel Depth--
 
 Day:           1
 Channel depth, Cell Row, Cell Column
  0.0000000E+00           2           6
  0.0000000E+00           2           7
  0.0000000E+00           2           8
  0.0000000E+00           3           4
  0.0000000E+00           3           5
  0.0000000E+00           3           6
  0.0000000E+00           3           8
  0.0000000E+00           3           9
  0.0000000E+00           3          10
  0.0000000E+00           4          10
  0.0000000E+00           4          11
  0.0000000E+00           4          12
  0.0000000E+00           4          19
  0.0000000E+00           4          20
  0.0000000E+00           5          12
  0.0000000E+00           5          13
  0.0000000E+00           5          14
  0.0000000E+00           5          15
  0.0000000E+00           5          16
  0.0000000E+00           5          17
  0.0000000E+00           5          18
  0.0000000E+00           5          19
  0.0000000E+00           5          20
  0.0000000E+00           5          21
  0.0000000E+00           5          22
  0.0000000E+00           5          23
  0.0000000E+00           5          24
  0.0000000E+00           5          25
  0.0000000E+00           5          26
  0.0000000E+00           6          15
  0.0000000E+00           6          16
  0.0000000E+00           6          17
  0.0000000E+00           6          23
  0.0000000E+00           6          24
  0.0000000E+00           6          25
  0.0000000E+00           6          26
  0.0000000E+00           7          14
  0.0000000E+00           7          15
  0.0000000E+00           7          22
  0.0000000E+00           7          23
  0.0000000E+00           7          26
  0.0000000E+00           7          27
  0.0000000E+00           7          28
  0.0000000E+00           8          11
  0.0000000E+00           8          12
  0.0000000E+00           8          13
  0.0000000E+00           8          14
  0.0000000E+00           8          21
  0.0000000E+00           8          22
  0.0000000E+00           8          28
  0.0000000E+00           8          29
  0.0000000E+00           8          30
  0.0000000E+00           8          31
  0.0000000E+00           9          13
  0.0000000E+00           9          14
  0.0000000E+00           9          18
  0.0000000E+00           9          19
  0.0000000E+00           9          20
  0.0000000E+00           9          21
  0.0000000E+00           9          31
  0.0000000E+00          10          18
  0.0000000E+00          10          30
  0.0000000E+00          10          31
  0.0000000E+00          10          32
  0.0000000E+00          10          33
  0.0000000E+00          10          34
  0.0000000E+00          10          35
  0.0000000E+00          11          17
  0.0000000E+00          11          28
  0.0000000E+00          11          29
  0.0000000E+00          11          32
  0.0000000E+00          11          33
  0.0000000E+00          11          34
  0.0000000E+00          11          35
  0.0000000E+00          11          36
  0.0000000E+00          12          16
  0.0000000E+00          12          17
  0.0000000E+00          12          22
  0.0000000E+00          12          23
  0.0000000E+00          12          24
  0.0000000E+00          12          25
  0.0000000E+00          12          26
  0.0000000E+00          12          27
  0.0000000E+00          12          28
  0.0000000E+00          12          31
  0.0000000E+00          12          32
  0.0000000E+00          12          34
  0.0000000E+00          12          35
  0.0000000E+00          12          36
  0.0000000E+00          12          37
  0.0000000E+00          13          21
  0.0000000E+00          13          22
  0.0000000E+00          13          30
  0.0000000E+00          13          31
  0.0000000E+00          13          33
  0.0000000E+00          13          34
  0.0000000E+00          13          35
  0.0000000E+00          13          36
  0.0000000E+00          13          37
  0.0000000E+00          14          19
  0.0000000E+00          14          20
  0.0000000E+00          14          20
  0.0000000E+00          14          30
  0.0000000E+00          14          33
  0.0000000E+00          14          37
  0.0000000E+00          14          38
  0.0000000E+00          15          18
  0.0000000E+00          15          19
  0.0000000E+00          15          29
  0.0000000E+00          15          30
  0.0000000E+00          15          33
  0.0000000E+00          15          38
  0.0000000E+00          15          39
  0.0000000E+00          15          40
  0.0000000E+00          16          28
  0.0000000E+00          16          29
  0.0000000E+00          16          33
  0.0000000E+00          16          38
  0.0000000E+00          17          28
  0.0000000E+00          17          29
  0.0000000E+00          17          32
  0.0000000E+00          17          33
  0.0000000E+00          17          38
  0.0000000E+00          18          27
  0.0000000E+00          18          28
  0.0000000E+00          18          32
  0.0000000E+00          18          36
  0.0000000E+00          18          37
  0.0000000E+00          18          38
  0.0000000E+00          19          27
  0.0000000E+00          19          30
  0.0000000E+00          19          31
  0.0000000E+00          19          32
  0.0000000E+00          19          34
  0.0000000E+00          19          35
  0.0000000E+00          19          36
  0.0000000E+00          20          29
  0.0000000E+00          20          30
  0.0000000E+00          20          32
  0.0000000E+00          20          33
  0.0000000E+00          20          34
  0.0000000E+00          21          29
  0.0000000E+00          21          32
  0.0000000E+00          22          28
  0.0000000E+00          22          29
