 Monthly Averaged Head Values from MODFLOW
 
 month:           1 year:        1985
 layer:           1
  3.59833E+02  3.51831E+02  3.44353E+02  3.40165E+02  3.33157E+02  3.28324E+02  3.27165E+02  3.26953E+02  3.27768E+02  3.25697E+02  3.13039E+02  3.08251E+02  3.03713E+02  2.99407E+02  2.95635E+02  2.93976E+02  2.88537E+02  2.85722E+02  2.83925E+02  2.83331E+02  2.84038E+02  2.85148E+02  2.87876E+02  2.88469E+02  2.83402E+02  2.78419E+02  2.79991E+02 -2.00000E+20 -2.00000E+20 -2.00000E+20 -2.00000E+20 -2.00000E+20 -2.00000E+20 -2.00000E+20 -2.00000E+20 -2.00000E+20 -2.00000E+20 -2.00000E+20 -2.00000E+20 -2.00000E+20
  3.61951E+02  3.49507E+02  3.43405E+02  3.37156E+02  3.25073E+02  3.16771E+02  3.07964E+02  3.14114E+02  3.13844E+02  3.18445E+02  3.17964E+02  3.13963E+02  3.09360E+02  3.08408E+02  3.10316E+02  3.09364E+02  3.02647E+02  2.93003E+02  2.84954E+02  2.85913E+02  2.90309E+02  2.78195E+02  2.75264E+02  2.74943E+02  2.71035E+02  2.69577E+02  2.75305E+02  2.79197E+02  2.74906E+02  2.65816E+02  2.53789E+02  2.41528E+02 -2.00000E+20 -2.00000E+20 -2.00000E+20 -2.00000E+20 -2.00000E+20 -2.00000E+20 -2.00000E+20 -2.00000E+20
  3.60321E+02  3.51265E+02  3.40623E+02  3.35639E+02  3.26272E+02  3.33980E+02  3.26032E+02  3.11993E+02  2.96743E+02  3.02511E+02  2.99168E+02  3.02257E+02  2.99890E+02  2.96505E+02  2.96121E+02  3.00842E+02  2.96156E+02  2.89372E+02  2.80361E+02  2.80621E+02  2.74911E+02  2.71671E+02  2.63329E+02  2.66973E+02  2.66895E+02  2.61657E+02  2.69863E+02  2.72160E+02  2.68117E+02  2.59122E+02  2.47692E+02  2.37486E+02  2.31675E+02 -2.00000E+20 -2.00000E+20 -2.00000E+20 -2.00000E+20 -2.00000E+20 -2.00000E+20 -2.00000E+20
  3.60103E+02  3.55702E+02  3.45681E+02  3.40258E+02  3.38044E+02  3.29780E+02  3.21214E+02  3.18647E+02  3.15008E+02  2.92671E+02  2.75081E+02  2.91185E+02  2.96997E+02  2.79981E+02  2.90040E+02  2.92524E+02  2.86707E+02  2.78405E+02  2.68167E+02  2.65623E+02  2.62168E+02  2.57673E+02  2.53503E+02  2.54812E+02  2.51444E+02  2.50620E+02  2.59227E+02  2.60030E+02  2.60648E+02  2.52058E+02  2.42690E+02  2.35364E+02  2.33598E+02  2.33435E+02 -2.00000E+20 -2.00000E+20 -2.00000E+20 -2.00000E+20 -2.00000E+20 -2.00000E+20
  3.59397E+02  3.55478E+02  3.51542E+02  3.53029E+02  3.47449E+02  3.40789E+02  3.29499E+02  3.22814E+02  3.10803E+02  3.12300E+02  3.06242E+02  2.71529E+02  2.76614E+02  2.56512E+02  2.60751E+02  2.63148E+02  2.74633E+02  2.58324E+02  2.69258E+02  2.53793E+02  2.51480E+02  2.46115E+02  2.35124E+02  2.32974E+02  2.32615E+02  2.38534E+02  2.45195E+02  2.53906E+02  2.51316E+02  2.43427E+02  2.38837E+02  2.34950E+02  2.34451E+02  2.32362E+02  2.29352E+02  2.27116E+02 -2.00000E+20 -2.00000E+20 -2.00000E+20 -2.00000E+20
  3.58542E+02  3.54664E+02  3.50819E+02  3.48314E+02  3.46835E+02  3.42312E+02  3.32079E+02  3.27685E+02  3.23317E+02  3.16913E+02  3.15430E+02  3.06743E+02  3.04990E+02  2.95656E+02  2.84460E+02  2.57565E+02  2.78951E+02  2.80047E+02  2.79753E+02  2.81152E+02  2.75072E+02  2.67656E+02  2.54380E+02  2.39573E+02  2.41665E+02  2.18654E+02  2.35564E+02  2.36768E+02  2.35662E+02  2.31046E+02  2.31891E+02  2.33125E+02  2.32561E+02  2.30115E+02  2.26424E+02  2.24366E+02  2.24827E+02 -2.00000E+20 -2.00000E+20 -2.00000E+20
  3.57498E+02  3.53658E+02  3.49796E+02  3.46313E+02  3.46775E+02  3.43646E+02  3.40869E+02  3.34449E+02  3.21934E+02  3.14963E+02  3.15708E+02  3.15318E+02  3.02379E+02  2.90045E+02  2.75205E+02  2.87094E+02  2.93532E+02  2.92409E+02  2.88207E+02  2.78904E+02  2.70270E+02  2.58481E+02  2.56922E+02  2.60121E+02  2.51290E+02  2.41578E+02  2.24601E+02  2.11296E+02  2.27079E+02  2.24950E+02  2.20444E+02  2.28876E+02  2.26900E+02  2.27053E+02  2.23129E+02  2.21340E+02  2.20917E+02  2.19063E+02 -2.00000E+20 -2.00000E+20
  3.56326E+02  3.52460E+02  3.48602E+02  3.45040E+02  3.41923E+02  3.43461E+02  3.38253E+02  3.38899E+02  3.28031E+02  3.22539E+02  3.09156E+02  2.99931E+02  2.99868E+02  2.72900E+02  2.96456E+02  3.01228E+02  2.94492E+02  2.86039E+02  2.82951E+02  2.78029E+02  2.70063E+02  2.64186E+02  2.72441E+02  2.67016E+02  2.53584E+02  2.44655E+02  2.36258E+02  2.29346E+02  2.08222E+02  2.03583E+02  2.05827E+02  2.19382E+02  2.15372E+02  2.17872E+02  2.18958E+02  2.18372E+02  2.16449E+02  2.14591E+02  2.12158E+02 -2.00000E+20
 -2.00000E+20  3.50939E+02  3.47364E+02  3.43728E+02  3.40334E+02  3.37314E+02  3.33834E+02  3.34642E+02  3.32944E+02  3.26092E+02  3.16454E+02  3.12149E+02  2.95669E+02  3.00488E+02  3.04072E+02  3.03631E+02  2.91324E+02  2.80861E+02  2.78698E+02  2.73681E+02  2.71827E+02  2.76291E+02  2.72220E+02  2.63484E+02  2.59876E+02  2.59324E+02  2.51244E+02  2.39800E+02  2.29292E+02  2.22604E+02  1.96945E+02  2.11977E+02  2.06202E+02  2.13342E+02  2.12081E+02  2.08785E+02  2.13242E+02  2.10472E+02  2.07504E+02  2.04094E+02
 -2.00000E+20 -2.00000E+20 -2.00000E+20  3.42152E+02  3.38896E+02  3.36194E+02  3.34318E+02  3.28350E+02  3.23558E+02  3.22437E+02  3.17959E+02  3.07159E+02  3.04976E+02  3.14637E+02  3.12319E+02  3.03844E+02  2.93135E+02  2.91789E+02  2.87999E+02  2.85749E+02  2.83642E+02  2.75896E+02  2.71421E+02  2.66585E+02  2.55117E+02  2.48972E+02  2.41427E+02  2.38914E+02  2.26428E+02  2.13729E+02  2.14318E+02  1.97527E+02  1.94801E+02  1.88221E+02  1.98807E+02  2.03704E+02  2.08808E+02  2.06628E+02  2.04102E+02  2.05914E+02
 -2.00000E+20 -2.00000E+20 -2.00000E+20 -2.00000E+20  3.37232E+02  3.39531E+02  3.38754E+02  3.33614E+02  3.24001E+02  3.17115E+02  3.14054E+02  3.12185E+02  3.12768E+02  3.20095E+02  3.12942E+02  3.02385E+02  2.94623E+02  2.97171E+02  2.85708E+02  2.83306E+02  2.75719E+02  2.68153E+02  2.60766E+02  2.57464E+02  2.55190E+02  2.55106E+02  2.45657E+02  2.28686E+02  2.23744E+02  2.28947E+02  2.21290E+02  2.14438E+02  2.06743E+02  2.04012E+02  1.88220E+02  1.94511E+02  2.00552E+02  2.01217E+02  2.00682E+02  2.01650E+02
 -2.00000E+20 -2.00000E+20 -2.00000E+20 -2.00000E+20 -2.00000E+20 -2.00000E+20  3.46389E+02  3.41256E+02  3.29537E+02  3.19763E+02  3.23387E+02  3.22360E+02  3.22436E+02  3.18926E+02  3.09313E+02  3.02086E+02  2.93927E+02  2.92569E+02  2.87908E+02  2.71916E+02  2.65377E+02  2.55738E+02  2.46698E+02  2.41287E+02  2.36902E+02  2.38292E+02  2.34669E+02  2.32093E+02  2.38891E+02  2.25787E+02  2.15154E+02  2.20441E+02  2.12404E+02  1.98947E+02  1.98018E+02  1.83752E+02  1.92601E+02  1.92982E+02  1.93660E+02  1.96114E+02
 -2.00000E+20 -2.00000E+20 -2.00000E+20 -2.00000E+20 -2.00000E+20 -2.00000E+20 -2.00000E+20  3.45899E+02  3.34937E+02  3.24848E+02  3.20884E+02  3.27603E+02  3.20264E+02  3.16258E+02  3.13417E+02  3.06453E+02  3.03587E+02  2.89153E+02  2.82379E+02  2.72425E+02  2.64440E+02  2.67470E+02  2.65041E+02  2.65727E+02  2.51829E+02  2.50186E+02  2.42815E+02  2.47962E+02  2.40127E+02  2.23117E+02  2.26451E+02  2.22141E+02  2.09410E+02  2.05779E+02  2.00139E+02  1.93698E+02  1.82941E+02  1.83800E+02  1.82672E+02  1.89000E+02
 -2.00000E+20 -2.00000E+20 -2.00000E+20 -2.00000E+20 -2.00000E+20 -2.00000E+20 -2.00000E+20 -2.00000E+20 -2.00000E+20  3.30298E+02  3.22133E+02  3.18027E+02  3.14628E+02  3.19878E+02  3.09329E+02  3.02774E+02  2.98261E+02  2.86479E+02  2.78245E+02  2.71716E+02  2.72387E+02  2.78470E+02  2.70540E+02  2.64610E+02  2.60616E+02  2.62508E+02  2.50020E+02  2.49630E+02  2.38891E+02  2.24884E+02  2.33489E+02  2.24061E+02  2.10886E+02  2.20409E+02  2.11814E+02  2.04969E+02  1.89066E+02  1.76031E+02  1.74155E+02  1.76483E+02
 -2.00000E+20 -2.00000E+20 -2.00000E+20 -2.00000E+20 -2.00000E+20 -2.00000E+20 -2.00000E+20 -2.00000E+20 -2.00000E+20 -2.00000E+20  3.28047E+02  3.20729E+02  3.13807E+02  3.11561E+02  3.10970E+02  3.03155E+02  2.95128E+02  2.85191E+02  2.84923E+02  2.80827E+02  2.83645E+02  2.76183E+02  2.65817E+02  2.61203E+02  2.57212E+02  2.57961E+02  2.55271E+02  2.46841E+02  2.33206E+02  2.33494E+02  2.35597E+02  2.28371E+02  2.10343E+02  2.23844E+02  2.16903E+02  2.05819E+02  1.93519E+02  1.93521E+02  1.74240E+02  1.68881E+02
 -2.00000E+20 -2.00000E+20 -2.00000E+20 -2.00000E+20 -2.00000E+20 -2.00000E+20 -2.00000E+20 -2.00000E+20 -2.00000E+20 -2.00000E+20 -2.00000E+20  3.26918E+02  3.19805E+02  3.13841E+02  3.08654E+02  3.04318E+02  3.04379E+02  2.99368E+02  2.89235E+02  2.82881E+02  2.81564E+02  2.70949E+02  2.66612E+02  2.64297E+02  2.53166E+02  2.47202E+02  2.43835E+02  2.38774E+02  2.32317E+02  2.44635E+02  2.35712E+02  2.24265E+02  2.17844E+02  2.23075E+02  2.16421E+02  2.14472E+02  2.05624E+02  1.89573E+02  1.95705E+02  1.83527E+02
 -2.00000E+20 -2.00000E+20 -2.00000E+20 -2.00000E+20 -2.00000E+20 -2.00000E+20 -2.00000E+20 -2.00000E+20 -2.00000E+20 -2.00000E+20 -2.00000E+20 -2.00000E+20 -2.00000E+20  3.20123E+02  3.14301E+02  3.08558E+02  3.03380E+02  2.98380E+02  2.98377E+02  2.89954E+02  2.80650E+02  2.73242E+02  2.74299E+02  2.63167E+02  2.59282E+02  2.50251E+02  2.48448E+02  2.40440E+02  2.48943E+02  2.44534E+02  2.38191E+02  2.29341E+02  2.27201E+02  2.28397E+02  2.23902E+02  2.14765E+02  2.03890E+02  1.89126E+02  2.00499E+02  1.88003E+02
 -2.00000E+20 -2.00000E+20 -2.00000E+20 -2.00000E+20 -2.00000E+20 -2.00000E+20 -2.00000E+20 -2.00000E+20 -2.00000E+20 -2.00000E+20 -2.00000E+20 -2.00000E+20 -2.00000E+20  3.26498E+02  3.21013E+02  3.15086E+02  3.09342E+02  3.03660E+02  2.97849E+02  2.93591E+02  2.85815E+02  2.80003E+02  2.72939E+02  2.64263E+02  2.61485E+02  2.58735E+02  2.53365E+02  2.50533E+02  2.47983E+02  2.42578E+02  2.37063E+02  2.25319E+02  2.30749E+02  2.25418E+02  2.19819E+02  2.12213E+02  2.01585E+02  2.06068E+02  1.98665E+02  1.90591E+02
 -2.00000E+20 -2.00000E+20 -2.00000E+20 -2.00000E+20 -2.00000E+20 -2.00000E+20 -2.00000E+20 -2.00000E+20 -2.00000E+20 -2.00000E+20 -2.00000E+20 -2.00000E+20 -2.00000E+20 -2.00000E+20  3.26736E+02  3.21048E+02  3.15598E+02  3.09878E+02  3.03903E+02  2.98156E+02  2.90595E+02  2.81562E+02  2.75323E+02  2.71546E+02  2.62648E+02  2.60745E+02  2.55365E+02  2.52417E+02  2.44767E+02  2.34777E+02  2.32356E+02  2.35998E+02  2.29136E+02  2.18587E+02  2.13137E+02  2.12772E+02  2.11065E+02  2.07038E+02  2.00744E+02  1.93477E+02
 -2.00000E+20 -2.00000E+20 -2.00000E+20 -2.00000E+20 -2.00000E+20 -2.00000E+20 -2.00000E+20 -2.00000E+20 -2.00000E+20 -2.00000E+20 -2.00000E+20 -2.00000E+20 -2.00000E+20 -2.00000E+20 -2.00000E+20 -2.00000E+20  3.20692E+02  3.15394E+02  3.09435E+02  3.03268E+02  2.96507E+02  2.85955E+02  2.77776E+02  2.72619E+02  2.67714E+02  2.61478E+02  2.57882E+02  2.52414E+02  2.48922E+02  2.44743E+02  2.40319E+02  2.32506E+02  2.25554E+02  2.28336E+02  2.20508E+02  2.20876E+02  2.14860E+02  2.09598E+02  2.03878E+02  1.97019E+02
 -2.00000E+20 -2.00000E+20 -2.00000E+20 -2.00000E+20 -2.00000E+20 -2.00000E+20 -2.00000E+20 -2.00000E+20 -2.00000E+20 -2.00000E+20 -2.00000E+20 -2.00000E+20 -2.00000E+20 -2.00000E+20 -2.00000E+20 -2.00000E+20 -2.00000E+20  3.19856E+02  3.14063E+02  3.07886E+02  3.01109E+02  2.93599E+02  2.85877E+02  2.75042E+02  2.68602E+02  2.64405E+02  2.57116E+02  2.54487E+02  2.46814E+02  2.47968E+02  2.39454E+02  2.33321E+02  2.35404E+02  2.29774E+02  2.25088E+02  2.23111E+02  2.18334E+02  2.12660E+02  2.06868E+02  2.01326E+02
 -2.00000E+20 -2.00000E+20 -2.00000E+20 -2.00000E+20 -2.00000E+20 -2.00000E+20 -2.00000E+20 -2.00000E+20 -2.00000E+20 -2.00000E+20 -2.00000E+20 -2.00000E+20 -2.00000E+20 -2.00000E+20 -2.00000E+20 -2.00000E+20 -2.00000E+20 -2.00000E+20 -2.00000E+20  3.11224E+02  3.04424E+02  2.97048E+02  2.88835E+02  2.79732E+02  2.69902E+02  2.61958E+02  2.56309E+02  2.51789E+02  2.51274E+02  2.46300E+02  2.40530E+02  2.37636E+02  2.35136E+02  2.30193E+02  2.27176E+02  2.27119E+02  2.22573E+02  2.16438E+02  2.10066E+02 -2.00000E+20
 -2.00000E+20 -2.00000E+20 -2.00000E+20 -2.00000E+20 -2.00000E+20 -2.00000E+20 -2.00000E+20 -2.00000E+20 -2.00000E+20 -2.00000E+20 -2.00000E+20 -2.00000E+20 -2.00000E+20 -2.00000E+20 -2.00000E+20 -2.00000E+20 -2.00000E+20 -2.00000E+20 -2.00000E+20 -2.00000E+20 -2.00000E+20  2.98727E+02  2.90483E+02  2.80779E+02  2.70130E+02  2.65054E+02  2.61182E+02  2.57966E+02  2.54170E+02  2.47766E+02  2.43750E+02  2.42296E+02  2.38445E+02  2.33618E+02  2.29695E+02  2.28729E+02  2.27152E+02  2.21010E+02  2.14039E+02 -2.00000E+20
 
 month:           2 year:        1985
 layer:           1
  3.59436E+02  3.51875E+02  3.44546E+02  3.39975E+02  3.33049E+02  3.28168E+02  3.26669E+02  3.26507E+02  3.27017E+02  3.24868E+02  3.16469E+02  3.08508E+02  3.03926E+02  2.99867E+02  3.06959E+02  3.06015E+02  2.97166E+02  2.86115E+02  2.84026E+02  2.83536E+02  2.84427E+02  2.84953E+02  2.86624E+02  2.86638E+02  2.82540E+02  2.78365E+02  2.79306E+02 -2.00000E+20 -2.00000E+20 -2.00000E+20 -2.00000E+20 -2.00000E+20 -2.00000E+20 -2.00000E+20 -2.00000E+20 -2.00000E+20 -2.00000E+20 -2.00000E+20 -2.00000E+20 -2.00000E+20
  3.60929E+02  3.52187E+02  3.43514E+02  3.37132E+02  3.28094E+02  3.16784E+02  3.07974E+02  3.14130E+02  3.23082E+02  3.18193E+02  3.17150E+02  3.13328E+02  3.09018E+02  3.07690E+02  3.09062E+02  3.07967E+02  3.01577E+02  2.92692E+02  2.85150E+02  2.85684E+02  2.88221E+02  2.81829E+02  2.77794E+02  2.76418E+02  2.75141E+02  2.74444E+02  2.75258E+02  2.77423E+02  2.72892E+02  2.64930E+02  2.54164E+02  2.46043E+02 -2.00000E+20 -2.00000E+20 -2.00000E+20 -2.00000E+20 -2.00000E+20 -2.00000E+20 -2.00000E+20 -2.00000E+20
  3.59758E+02  3.51635E+02  3.44501E+02  3.35659E+02  3.26284E+02  3.33918E+02  3.25465E+02  3.12007E+02  2.96756E+02  3.02525E+02  3.28701E+02  3.02796E+02  3.00228E+02  2.97193E+02  3.04339E+02  3.00706E+02  2.96008E+02  2.89132E+02  2.80553E+02  2.80230E+02  2.79424E+02  2.71583E+02  2.69737E+02  2.66881E+02  2.66432E+02  2.68015E+02  2.69225E+02  2.70526E+02  2.67485E+02  2.59504E+02  2.49406E+02  2.40254E+02  2.34490E+02 -2.00000E+20 -2.00000E+20 -2.00000E+20 -2.00000E+20 -2.00000E+20 -2.00000E+20 -2.00000E+20
  3.59707E+02  3.55141E+02  3.47960E+02  3.45290E+02  3.38134E+02  3.35851E+02  3.25461E+02  3.18657E+02  3.14556E+02  2.92679E+02  2.75090E+02  2.91203E+02  3.71819E+02  2.80236E+02  2.90170E+02  2.92121E+02  2.86852E+02  2.78729E+02  2.68181E+02  2.65636E+02  2.62627E+02  2.60328E+02  2.53892E+02  2.54970E+02  2.56935E+02  2.59435E+02  2.58805E+02  2.60388E+02  2.59999E+02  2.52093E+02  2.43591E+02  2.36539E+02  2.33716E+02  2.33363E+02 -2.00000E+20 -2.00000E+20 -2.00000E+20 -2.00000E+20 -2.00000E+20 -2.00000E+20
  3.59062E+02  3.55441E+02  3.51515E+02  3.51626E+02  3.46708E+02  3.40258E+02  3.29844E+02  3.23023E+02  3.32864E+02  3.12084E+02  3.05812E+02  2.71537E+02  2.76624E+02  2.56524E+02  2.60766E+02  2.63156E+02  2.74650E+02  2.58337E+02  2.69274E+02  2.53802E+02  2.51489E+02  2.46125E+02  2.35140E+02  2.32987E+02  2.32630E+02  2.38546E+02  2.49128E+02  2.52796E+02  2.50798E+02  2.43895E+02  2.38746E+02  2.35069E+02  2.34130E+02  2.32170E+02  2.29217E+02  2.27046E+02 -2.00000E+20 -2.00000E+20 -2.00000E+20 -2.00000E+20
  3.58224E+02  3.54675E+02  3.50921E+02  3.48500E+02  3.46638E+02  3.42094E+02  3.36072E+02  3.27951E+02  3.23152E+02  3.17003E+02  4.60553E+02  3.06420E+02  3.04131E+02  2.95278E+02  2.84479E+02  2.57574E+02  2.78958E+02  2.80291E+02  2.79901E+02  2.79617E+02  2.74023E+02  2.66747E+02  2.54396E+02  2.39580E+02  2.41676E+02  2.18673E+02  2.36636E+02  2.39624E+02  2.41119E+02  2.38156E+02  2.32181E+02  2.32865E+02  2.32123E+02  2.29947E+02  2.26458E+02  2.24512E+02  2.24449E+02 -2.00000E+20 -2.00000E+20 -2.00000E+20
  3.57195E+02  3.53673E+02  3.49823E+02  3.46586E+02  3.46247E+02  3.43517E+02  3.40109E+02  3.34136E+02  3.26782E+02  3.18456E+02  3.15465E+02  3.13871E+02  3.02687E+02  2.90062E+02  2.75217E+02  3.00611E+02  2.92816E+02  2.91361E+02  2.87291E+02  2.79025E+02  2.70469E+02  2.58495E+02  2.56932E+02  2.59496E+02  2.51321E+02  2.41607E+02  2.24618E+02  2.11308E+02  2.27118E+02  2.24989E+02  2.29915E+02  2.28314E+02  2.26848E+02  2.26433E+02  2.23207E+02  2.21445E+02  2.20793E+02  2.18846E+02 -2.00000E+20 -2.00000E+20
  3.56124E+02  3.52468E+02  3.48569E+02  3.45120E+02  3.42400E+02  3.42755E+02  3.38442E+02  3.37657E+02  3.28479E+02  3.22190E+02  3.09171E+02  2.99945E+02  2.99895E+02  2.72909E+02  2.95920E+02  3.00404E+02  2.94230E+02  2.86413E+02  2.82953E+02  2.77796E+02  2.70077E+02  2.64194E+02  2.70827E+02  2.66524E+02  2.60145E+02  2.55691E+02  2.48169E+02  2.29365E+02  2.08237E+02  2.03598E+02  2.05840E+02  2.19265E+02  2.21231E+02  2.20135E+02  2.18768E+02  2.18044E+02  2.16518E+02  2.14600E+02  2.11982E+02 -2.00000E+20
 -2.00000E+20  3.50750E+02  3.47472E+02  3.43770E+02  3.40408E+02  3.37623E+02  3.34317E+02  3.34458E+02  3.31939E+02  3.25639E+02  3.16532E+02  3.11305E+02  2.95684E+02  3.00501E+02  3.04019E+02  3.02837E+02  2.91798E+02  2.80871E+02  2.78708E+02  2.73689E+02  2.71833E+02  2.75161E+02  2.72025E+02  2.66928E+02  2.59761E+02  2.58021E+02  2.50218E+02  2.39687E+02  2.29128E+02  2.22622E+02  1.96953E+02  2.12025E+02  2.59983E+02  2.72162E+02  2.11900E+02  2.13102E+02  2.12858E+02  2.10452E+02  2.07523E+02  2.04508E+02
 -2.00000E+20 -2.00000E+20 -2.00000E+20  3.42051E+02  3.38950E+02  3.36489E+02  3.34471E+02  3.31758E+02  3.27227E+02  3.22321E+02  3.17643E+02  3.15353E+02  3.19397E+02  3.13728E+02  3.11355E+02  3.03664E+02  2.93146E+02  2.91810E+02  2.87568E+02  2.84843E+02  2.81845E+02  2.75726E+02  2.70944E+02  2.65776E+02  2.57666E+02  2.54997E+02  2.46188E+02  2.38475E+02  2.26444E+02  2.13743E+02  2.14335E+02  1.97543E+02  1.94819E+02  1.88234E+02  1.98817E+02  2.03865E+02  2.08227E+02  2.06472E+02  2.04402E+02  2.05276E+02
 -2.00000E+20 -2.00000E+20 -2.00000E+20 -2.00000E+20  3.37449E+02  3.39191E+02  3.38797E+02  3.33775E+02  3.26522E+02  3.19728E+02  3.18700E+02  3.17524E+02  3.18831E+02  3.18707E+02  3.12474E+02  3.02749E+02  2.94633E+02  2.95795E+02  2.88790E+02  2.82600E+02  2.75783E+02  2.68459E+02  2.61102E+02  2.57456E+02  2.54640E+02  2.53753E+02  2.45043E+02  2.28693E+02  2.23752E+02  2.28180E+02  2.21155E+02  2.14456E+02  2.06758E+02  2.04033E+02  1.88234E+02  1.94521E+02  2.00510E+02  2.01042E+02  2.00548E+02  2.01475E+02
 -2.00000E+20 -2.00000E+20 -2.00000E+20 -2.00000E+20 -2.00000E+20 -2.00000E+20  3.45269E+02  3.40637E+02  3.30809E+02  3.26011E+02  3.22872E+02  3.22151E+02  3.21586E+02  3.18375E+02  3.11708E+02  3.02101E+02  2.93933E+02  2.92432E+02  2.86981E+02  2.80095E+02  2.70504E+02  2.55746E+02  2.46708E+02  2.41295E+02  2.36914E+02  2.38298E+02  2.34677E+02  2.32103E+02  2.37551E+02  2.26121E+02  2.15160E+02  2.20476E+02  2.12263E+02  1.98958E+02  1.98030E+02  1.83758E+02  1.92618E+02  1.93134E+02  1.93753E+02  1.95896E+02
 -2.00000E+20 -2.00000E+20 -2.00000E+20 -2.00000E+20 -2.00000E+20 -2.00000E+20 -2.00000E+20  3.44549E+02  3.34833E+02  3.28216E+02  3.26020E+02  3.26124E+02  3.20385E+02  3.16813E+02  3.12821E+02  3.06182E+02  3.01786E+02  2.90117E+02  2.82415E+02  2.72845E+02  2.64449E+02  2.67479E+02  2.64668E+02  2.63898E+02  2.58941E+02  2.50457E+02  2.47758E+02  2.46681E+02  2.39573E+02  2.23126E+02  2.26471E+02  2.21879E+02  2.09421E+02  2.05790E+02  2.00154E+02  1.93710E+02  1.82955E+02  1.84053E+02  1.86053E+02  1.88550E+02
 -2.00000E+20 -2.00000E+20 -2.00000E+20 -2.00000E+20 -2.00000E+20 -2.00000E+20 -2.00000E+20 -2.00000E+20 -2.00000E+20  3.29513E+02  3.25754E+02  3.23825E+02  3.20069E+02  3.18506E+02  3.12072E+02  3.03243E+02  2.97937E+02  2.86795E+02  2.78255E+02  2.71729E+02  2.76971E+02  2.76983E+02  2.70131E+02  2.64561E+02  2.60492E+02  2.60645E+02  2.54657E+02  2.48849E+02  2.38664E+02  2.24892E+02  2.32400E+02  2.24089E+02  2.10894E+02  2.19035E+02  2.11717E+02  2.04407E+02  1.89083E+02  1.76038E+02  1.74557E+02  1.76882E+02
 -2.00000E+20 -2.00000E+20 -2.00000E+20 -2.00000E+20 -2.00000E+20 -2.00000E+20 -2.00000E+20 -2.00000E+20 -2.00000E+20 -2.00000E+20  3.27283E+02  3.21681E+02  3.18946E+02  3.15903E+02  3.10624E+02  3.03491E+02  2.99621E+02  2.85202E+02  2.84952E+02  2.80881E+02  2.82311E+02  2.76063E+02  2.68631E+02  2.61624E+02  2.57558E+02  2.57576E+02  2.54235E+02  2.46346E+02  2.33215E+02  2.33503E+02  2.34928E+02  2.27569E+02  2.10348E+02  2.22404E+02  2.16753E+02  2.13135E+02  2.03375E+02  1.93777E+02  1.74244E+02  1.68888E+02
 -2.00000E+20 -2.00000E+20 -2.00000E+20 -2.00000E+20 -2.00000E+20 -2.00000E+20 -2.00000E+20 -2.00000E+20 -2.00000E+20 -2.00000E+20 -2.00000E+20  3.25940E+02  3.19429E+02  3.15833E+02  3.11643E+02  3.05678E+02  3.03737E+02  2.98364E+02  2.92409E+02  2.85551E+02  2.81359E+02  2.76608E+02  2.68798E+02  2.63881E+02  2.59491E+02  2.55392E+02  2.49884E+02  2.38788E+02  2.32321E+02  2.42538E+02  2.35873E+02  2.28895E+02  2.17855E+02  2.22904E+02  2.20447E+02  2.13915E+02  2.04844E+02  1.89581E+02  1.93610E+02  1.83799E+02
 -2.00000E+20 -2.00000E+20 -2.00000E+20 -2.00000E+20 -2.00000E+20 -2.00000E+20 -2.00000E+20 -2.00000E+20 -2.00000E+20 -2.00000E+20 -2.00000E+20 -2.00000E+20 -2.00000E+20  3.19465E+02  3.14408E+02  3.08998E+02  3.06301E+02  3.02184E+02  2.97454E+02  2.89856E+02  2.83455E+02  2.78392E+02  2.73182E+02  2.65538E+02  2.59183E+02  2.55343E+02  2.48479E+02  2.40447E+02  2.47907E+02  2.44134E+02  2.37836E+02  2.29364E+02  2.27218E+02  2.27359E+02  2.22865E+02  2.14498E+02  2.03834E+02  1.89131E+02  1.98535E+02  1.91888E+02
 -2.00000E+20 -2.00000E+20 -2.00000E+20 -2.00000E+20 -2.00000E+20 -2.00000E+20 -2.00000E+20 -2.00000E+20 -2.00000E+20 -2.00000E+20 -2.00000E+20 -2.00000E+20 -2.00000E+20  3.25036E+02  3.20652E+02  3.15039E+02  3.09619E+02  3.04315E+02  3.00469E+02  2.93549E+02  2.86167E+02  2.79869E+02  2.73223E+02  2.68251E+02  2.61601E+02  2.58309E+02  2.53380E+02  2.50571E+02  2.47601E+02  2.42186E+02  2.36482E+02  2.25325E+02  2.29690E+02  2.25106E+02  2.19506E+02  2.12230E+02  2.01594E+02  2.05252E+02  1.98890E+02  1.92878E+02
 -2.00000E+20 -2.00000E+20 -2.00000E+20 -2.00000E+20 -2.00000E+20 -2.00000E+20 -2.00000E+20 -2.00000E+20 -2.00000E+20 -2.00000E+20 -2.00000E+20 -2.00000E+20 -2.00000E+20 -2.00000E+20  3.25250E+02  3.20237E+02  3.15446E+02  3.10043E+02  3.04114E+02  2.98190E+02  2.90862E+02  2.83366E+02  2.75762E+02  2.71048E+02  2.65245E+02  2.60487E+02  2.55378E+02  2.52007E+02  2.45150E+02  2.34786E+02  2.32364E+02  2.35440E+02  2.28759E+02  2.18597E+02  2.13149E+02  2.12783E+02  2.10593E+02  2.06936E+02  2.00847E+02  1.94909E+02
 -2.00000E+20 -2.00000E+20 -2.00000E+20 -2.00000E+20 -2.00000E+20 -2.00000E+20 -2.00000E+20 -2.00000E+20 -2.00000E+20 -2.00000E+20 -2.00000E+20 -2.00000E+20 -2.00000E+20 -2.00000E+20 -2.00000E+20 -2.00000E+20  3.19350E+02  3.15003E+02  3.09361E+02  3.03235E+02  2.96376E+02  2.89551E+02  2.81414E+02  2.73028E+02  2.67478E+02  2.61774E+02  2.57571E+02  2.52661E+02  2.48966E+02  2.44773E+02  2.39537E+02  2.32516E+02  2.25562E+02  2.28160E+02  2.20922E+02  2.20003E+02  2.14795E+02  2.09650E+02  2.03934E+02  1.97607E+02
 -2.00000E+20 -2.00000E+20 -2.00000E+20 -2.00000E+20 -2.00000E+20 -2.00000E+20 -2.00000E+20 -2.00000E+20 -2.00000E+20 -2.00000E+20 -2.00000E+20 -2.00000E+20 -2.00000E+20 -2.00000E+20 -2.00000E+20 -2.00000E+20 -2.00000E+20  3.18286E+02  3.13333E+02  3.07623E+02  3.00930E+02  2.93424E+02  2.85595E+02  2.77444E+02  2.68923E+02  2.63854E+02  2.57443E+02  2.53824E+02  2.46821E+02  2.46912E+02  2.39464E+02  2.33329E+02  2.34095E+02  2.29719E+02  2.25127E+02  2.22998E+02  2.18372E+02  2.12694E+02  2.07073E+02  2.01502E+02
 -2.00000E+20 -2.00000E+20 -2.00000E+20 -2.00000E+20 -2.00000E+20 -2.00000E+20 -2.00000E+20 -2.00000E+20 -2.00000E+20 -2.00000E+20 -2.00000E+20 -2.00000E+20 -2.00000E+20 -2.00000E+20 -2.00000E+20 -2.00000E+20 -2.00000E+20 -2.00000E+20 -2.00000E+20  3.09822E+02  3.03698E+02  2.96713E+02  2.88679E+02  2.79646E+02  2.70242E+02  2.63381E+02  2.57271E+02  2.51798E+02  2.51307E+02  2.46466E+02  2.40923E+02  2.37664E+02  2.35187E+02  2.30555E+02  2.27411E+02  2.26572E+02  2.22479E+02  2.16383E+02  2.11926E+02 -2.00000E+20
 -2.00000E+20 -2.00000E+20 -2.00000E+20 -2.00000E+20 -2.00000E+20 -2.00000E+20 -2.00000E+20 -2.00000E+20 -2.00000E+20 -2.00000E+20 -2.00000E+20 -2.00000E+20 -2.00000E+20 -2.00000E+20 -2.00000E+20 -2.00000E+20 -2.00000E+20 -2.00000E+20 -2.00000E+20 -2.00000E+20 -2.00000E+20  2.97363E+02  2.90142E+02  2.80787E+02  2.71689E+02  2.65034E+02  2.60857E+02  2.57408E+02  2.53676E+02  2.47858E+02  2.43701E+02  2.41755E+02  2.38038E+02  2.33490E+02  2.29649E+02  2.28472E+02  2.26371E+02  2.20651E+02  2.14269E+02 -2.00000E+20
 
 month:           3 year:        1985
 layer:           1
  3.59050E+02  3.52287E+02  3.49579E+02  3.40352E+02  3.34747E+02  3.28618E+02  3.26855E+02  3.26416E+02  3.26879E+02  3.24350E+02  3.18573E+02  3.08831E+02  3.04182E+02  3.05274E+02  3.07925E+02  3.05897E+02  2.98646E+02  2.88328E+02  2.84170E+02  2.83718E+02  2.84624E+02  2.84861E+02  2.85941E+02  2.85409E+02  2.81955E+02  2.78455E+02  2.78779E+02 -2.00000E+20 -2.00000E+20 -2.00000E+20 -2.00000E+20 -2.00000E+20 -2.00000E+20 -2.00000E+20 -2.00000E+20 -2.00000E+20 -2.00000E+20 -2.00000E+20 -2.00000E+20 -2.00000E+20
  3.60282E+02  3.55705E+02  3.48506E+02  3.40923E+02  3.54948E+02  3.16806E+02  3.07994E+02  3.14152E+02  3.43825E+02  3.18833E+02  3.17905E+02  3.13464E+02  3.09650E+02  3.07988E+02  3.08903E+02  3.07148E+02  3.00996E+02  2.92437E+02  2.85380E+02  2.85509E+02  2.87349E+02  2.84537E+02  2.83344E+02  2.78480E+02  2.76127E+02  2.76202E+02  2.75203E+02  2.75924E+02  2.71329E+02  2.64287E+02  2.57165E+02  2.51295E+02 -2.00000E+20 -2.00000E+20 -2.00000E+20 -2.00000E+20 -2.00000E+20 -2.00000E+20 -2.00000E+20 -2.00000E+20
  3.59372E+02  3.56283E+02  3.54595E+02  3.35683E+02  3.26302E+02  3.34380E+02  3.25692E+02  3.12024E+02  2.96772E+02  3.02551E+02  4.48116E+02  3.82407E+02  3.94193E+02  3.73862E+02  3.37381E+02  3.01213E+02  2.96094E+02  2.89333E+02  2.80918E+02  2.80392E+02  2.87849E+02  2.74361E+02  2.79261E+02  2.67357E+02  2.67440E+02  2.74760E+02  2.69177E+02  2.69391E+02  2.66805E+02  2.60195E+02  2.53365E+02  2.46370E+02  2.40661E+02 -2.00000E+20 -2.00000E+20 -2.00000E+20 -2.00000E+20 -2.00000E+20 -2.00000E+20 -2.00000E+20
  3.59320E+02  3.55112E+02  3.54491E+02  3.49402E+02  3.38670E+02  3.43120E+02  3.43253E+02  3.21141E+02  3.14916E+02  2.92687E+02  2.75101E+02  2.91233E+02  1.16731E+03  4.59258E+02  3.47325E+02  2.92256E+02  2.87242E+02  2.91392E+02  2.68203E+02  2.65656E+02  3.14059E+02  2.99239E+02  2.79977E+02  2.58281E+02  2.68113E+02  2.70488E+02  2.61087E+02  2.60992E+02  2.59596E+02  2.52742E+02  2.47657E+02  2.40794E+02  2.34969E+02  2.33323E+02 -2.00000E+20 -2.00000E+20 -2.00000E+20 -2.00000E+20 -2.00000E+20 -2.00000E+20
  3.58748E+02  3.55372E+02  3.51697E+02  3.50807E+02  3.46084E+02  3.40173E+02  3.34445E+02  3.26581E+02  3.97971E+02  3.12678E+02  3.06409E+02  2.71549E+02  2.76643E+02  2.56547E+02  2.60783E+02  2.63165E+02  2.74669E+02  2.58359E+02  2.69291E+02  2.53818E+02  2.51510E+02  2.46145E+02  2.35158E+02  2.33003E+02  2.32645E+02  2.38559E+02  2.57973E+02  2.53847E+02  2.51703E+02  2.50742E+02  2.42532E+02  2.35544E+02  2.33918E+02  2.31988E+02  2.29094E+02  2.26987E+02 -2.00000E+20 -2.00000E+20 -2.00000E+20 -2.00000E+20
  3.57935E+02  3.54661E+02  3.51010E+02  3.48568E+02  3.46423E+02  3.42010E+02  3.36943E+02  3.28568E+02  3.23875E+02  3.22994E+02  1.28851E+03  3.06923E+02  3.04071E+02  2.95607E+02  2.84499E+02  2.57579E+02  2.78967E+02  2.83924E+02  2.80017E+02  2.78602E+02  2.73444E+02  2.66228E+02  2.54413E+02  2.39586E+02  2.41684E+02  2.18694E+02  2.66158E+02  2.53900E+02  2.52018E+02  2.51400E+02  2.45019E+02  2.33447E+02  2.32000E+02  2.29786E+02  2.26475E+02  2.24588E+02  2.24139E+02 -2.00000E+20 -2.00000E+20 -2.00000E+20
  3.56925E+02  3.53662E+02  3.49860E+02  3.46780E+02  3.45903E+02  3.43314E+02  3.39659E+02  3.34085E+02  3.31715E+02  3.28910E+02  3.16076E+02  3.13154E+02  3.09597E+02  2.90082E+02  2.75238E+02  3.56492E+02  2.92543E+02  2.90644E+02  2.86546E+02  2.79012E+02  2.70706E+02  2.58511E+02  2.56945E+02  2.59457E+02  2.51636E+02  2.41629E+02  2.24638E+02  2.11326E+02  2.39985E+02  2.43458E+02  2.49473E+02  2.28879E+02  2.29264E+02  2.27013E+02  2.23356E+02  2.21534E+02  2.20673E+02  2.18655E+02 -2.00000E+20 -2.00000E+20
  3.55932E+02  3.52447E+02  3.48559E+02  3.45245E+02  3.43505E+02  3.42286E+02  3.38519E+02  3.36818E+02  3.30636E+02  3.22362E+02  3.09188E+02  2.99963E+02  2.99916E+02  2.72927E+02  2.96109E+02  3.00560E+02  2.94033E+02  2.86647E+02  2.82911E+02  2.77606E+02  2.70086E+02  2.64204E+02  2.69809E+02  2.66251E+02  2.63209E+02  2.65081E+02  2.72379E+02  2.29387E+02  2.08257E+02  2.03621E+02  2.05855E+02  2.19519E+02  2.33027E+02  2.32848E+02  2.19199E+02  2.18623E+02  2.16570E+02  2.14579E+02  2.11837E+02 -2.00000E+20
 -2.00000E+20  3.50597E+02  3.47542E+02  3.43815E+02  3.40532E+02  3.37901E+02  3.36324E+02  3.34498E+02  3.31537E+02  3.25286E+02  3.16600E+02  3.11416E+02  2.95703E+02  3.00510E+02  3.03868E+02  3.02251E+02  2.93118E+02  2.80881E+02  2.78717E+02  2.73698E+02  2.71841E+02  2.74337E+02  2.71829E+02  2.66749E+02  2.60010E+02  2.57538E+02  2.50146E+02  2.39837E+02  2.29593E+02  2.22631E+02  1.96958E+02  2.12480E+02  4.18931E+02  4.63170E+02  2.12333E+02  2.15975E+02  2.13278E+02  2.10431E+02  2.07586E+02  2.05242E+02
 -2.00000E+20 -2.00000E+20 -2.00000E+20  3.41971E+02  3.39015E+02  3.36735E+02  3.34872E+02  3.36766E+02  3.34617E+02  3.22888E+02  3.18185E+02  3.27161E+02  3.37656E+02  3.13449E+02  3.10586E+02  3.03437E+02  2.93146E+02  2.91818E+02  2.87249E+02  2.84044E+02  2.80558E+02  2.75468E+02  2.70552E+02  2.65346E+02  2.59593E+02  2.55847E+02  2.48939E+02  2.38509E+02  2.26452E+02  2.13758E+02  2.14348E+02  1.97558E+02  1.94834E+02  1.88245E+02  1.98828E+02  2.04254E+02  2.08055E+02  2.06377E+02  2.05246E+02  2.04860E+02
 -2.00000E+20 -2.00000E+20 -2.00000E+20 -2.00000E+20  3.37626E+02  3.38938E+02  3.38784E+02  3.36424E+02  3.40040E+02  3.35478E+02  3.30212E+02  3.29177E+02  3.24393E+02  3.17960E+02  3.12088E+02  3.02970E+02  2.94642E+02  2.94864E+02  2.88349E+02  2.82425E+02  2.75953E+02  2.68770E+02  2.61394E+02  2.57445E+02  2.54310E+02  2.52778E+02  2.44694E+02  2.28704E+02  2.23761E+02  2.27909E+02  2.21044E+02  2.14467E+02  2.06770E+02  2.04048E+02  1.88245E+02  1.94528E+02  2.00471E+02  2.00939E+02  2.00538E+02  2.01274E+02