 Yearly Averaged Head Values from MODFLOW
 
 year:        1985
 layer:           1
  3.60875E+02  3.64296E+02  3.70339E+02  3.68948E+02  3.65192E+02  3.47948E+02  3.35146E+02  3.27669E+02  3.26818E+02  3.26633E+02  3.32833E+02  3.32903E+02  3.32558E+02  3.26976E+02  3.19297E+02  3.07703E+02  2.99130E+02  2.93088E+02  2.90609E+02  2.88210E+02  2.87334E+02  2.86051E+02  2.84930E+02  2.83509E+02  2.80663E+02  2.77883E+02  2.77552E+02 -2.00000E+20 -2.00000E+20 -2.00000E+20 -2.00000E+20 -2.00000E+20 -2.00000E+20 -2.00000E+20 -2.00000E+20 -2.00000E+20 -2.00000E+20 -2.00000E+20 -2.00000E+20 -2.00000E+20
  3.59681E+02  3.62445E+02  3.64831E+02  3.61713E+02  3.65488E+02  3.16809E+02  3.07994E+02  3.14147E+02  3.39288E+02  3.29241E+02  3.36824E+02  3.38175E+02  3.40686E+02  3.31806E+02  3.18856E+02  3.08172E+02  3.00790E+02  2.95717E+02  2.93811E+02  2.90220E+02  2.89955E+02  2.90693E+02  2.87213E+02  2.81285E+02  2.77950E+02  2.76018E+02  2.74119E+02  2.72875E+02  2.68618E+02  2.63548E+02  2.58681E+02  2.54017E+02 -2.00000E+20 -2.00000E+20 -2.00000E+20 -2.00000E+20 -2.00000E+20 -2.00000E+20 -2.00000E+20 -2.00000E+20
  3.58779E+02  3.59419E+02  3.58761E+02  3.35689E+02  3.26301E+02  3.34372E+02  3.30643E+02  3.12027E+02  2.96771E+02  3.02549E+02  4.23577E+02  3.80057E+02  3.96681E+02  3.77919E+02  3.42946E+02  3.11849E+02  3.04043E+02  2.98675E+02  2.91007E+02  2.86789E+02  2.94473E+02  2.91326E+02  2.89021E+02  2.78022E+02  2.75498E+02  2.74992E+02  2.70113E+02  2.67966E+02  2.65376E+02  2.61365E+02  2.56349E+02  2.50604E+02  2.45838E+02 -2.00000E+20 -2.00000E+20 -2.00000E+20 -2.00000E+20 -2.00000E+20 -2.00000E+20 -2.00000E+20
  3.58424E+02  3.56617E+02  3.55555E+02  3.49398E+02  3.41812E+02  3.44844E+02  3.50027E+02  3.40653E+02  3.30354E+02  2.92694E+02  2.75101E+02  2.91227E+02  9.52059E+02  4.55518E+02  3.63166E+02  3.04909E+02  2.98782E+02  2.99542E+02  2.68203E+02  2.65656E+02  3.12544E+02  3.08766E+02  2.89315E+02  2.69449E+02  2.71026E+02  2.69465E+02  2.66308E+02  2.64767E+02  2.62472E+02  2.58783E+02  2.54317E+02  2.47719E+02  2.42235E+02  2.37455E+02 -2.00000E+20 -2.00000E+20 -2.00000E+20 -2.00000E+20 -2.00000E+20 -2.00000E+20
  3.57870E+02  3.55196E+02  3.52763E+02  3.49606E+02  3.45179E+02  3.42924E+02  3.43665E+02  3.44474E+02  4.00713E+02  3.38041E+02  3.28687E+02  2.71552E+02  2.76640E+02  2.56545E+02  2.60781E+02  2.63166E+02  2.74667E+02  2.58357E+02  2.69287E+02  2.53812E+02  2.51505E+02  2.46142E+02  2.35156E+02  2.33003E+02  2.32642E+02  2.38558E+02  2.60008E+02  2.61946E+02  2.61175E+02  2.58772E+02  2.54515E+02  2.46433E+02  2.40166E+02  2.34782E+02  2.29783E+02  2.26870E+02 -2.00000E+20 -2.00000E+20 -2.00000E+20 -2.00000E+20
  3.57132E+02  3.54444E+02  3.51191E+02  3.48351E+02  3.45816E+02  3.42889E+02  3.42145E+02  3.41767E+02  3.44450E+02  3.45690E+02  1.06347E+03  3.13591E+02  3.07634E+02  3.01394E+02  2.84495E+02  2.57578E+02  2.78966E+02  2.85784E+02  2.79679E+02  2.76480E+02  2.71665E+02  2.64809E+02  2.54409E+02  2.39586E+02  2.41682E+02  2.18690E+02  2.62207E+02  2.56120E+02  2.58409E+02  2.58511E+02  2.53904E+02  2.45914E+02  2.39798E+02  2.34100E+02  2.28614E+02  2.25322E+02  2.23551E+02 -2.00000E+20 -2.00000E+20 -2.00000E+20
  3.56198E+02  3.53462E+02  3.49973E+02  3.47015E+02  3.45405E+02  3.42742E+02  3.40085E+02  3.38259E+02  3.40307E+02  3.38873E+02  3.25198E+02  3.13718E+02  3.11424E+02  2.90079E+02  2.75234E+02  3.43453E+02  2.91594E+02  2.89172E+02  2.84999E+02  2.78367E+02  2.71107E+02  2.58507E+02  2.56941E+02  2.59081E+02  2.54885E+02  2.41624E+02  2.24633E+02  2.11325E+02  2.49443E+02  2.51690E+02  2.52622E+02  2.41875E+02  2.39894E+02  2.35146E+02  2.28205E+02  2.23896E+02  2.20854E+02  2.18198E+02 -2.00000E+20 -2.00000E+20
  3.55327E+02  3.52227E+02  3.48621E+02  3.45595E+02  3.43445E+02  3.41908E+02  3.38798E+02  3.36150E+02  3.33291E+02  3.26959E+02  3.09192E+02  2.99959E+02  2.99911E+02  2.72924E+02  2.96765E+02  3.00113E+02  2.93475E+02  2.86716E+02  2.82567E+02  2.77179E+02  2.70085E+02  2.64200E+02  2.68069E+02  2.65167E+02  2.62474E+02  2.61569E+02  2.64541E+02  2.29381E+02  2.08256E+02  2.03618E+02  2.05857E+02  2.30729E+02  2.39658E+02  2.36507E+02  2.25886E+02  2.23118E+02  2.18627E+02  2.14758E+02  2.11620E+02 -2.00000E+20
 -2.00000E+20  3.50276E+02  3.47612E+02  3.44080E+02  3.41594E+02  3.39958E+02  3.38024E+02  3.35804E+02  3.32804E+02  3.28174E+02  3.20364E+02  3.12985E+02  2.95698E+02  3.00506E+02  3.03077E+02  3.01088E+02  2.92499E+02  2.80880E+02  2.78716E+02  2.73695E+02  2.71838E+02  2.72891E+02  2.70749E+02  2.65623E+02  2.60237E+02  2.56347E+02  2.49461E+02  2.42012E+02  2.35436E+02  2.22627E+02  1.96958E+02  2.28964E+02  3.75462E+02  3.98691E+02  2.17914E+02  2.18732E+02  2.16398E+02  2.11371E+02  2.08478E+02  2.06100E+02
 -2.00000E+20 -2.00000E+20 -2.00000E+20  3.41995E+02  3.40091E+02  3.39126E+02  3.38933E+02  3.39386E+02  3.37835E+02  3.32856E+02  3.27313E+02  3.27137E+02  3.31421E+02  3.12079E+02  3.08978E+02  3.02595E+02  2.93143E+02  2.91814E+02  2.86376E+02  2.82349E+02  2.78638E+02  2.74422E+02  2.69672E+02  2.64394E+02  2.58714E+02  2.54658E+02  2.48154E+02  2.39118E+02  2.26449E+02  2.13754E+02  2.14345E+02  1.97557E+02  1.94831E+02  1.88242E+02  1.98832E+02  2.07223E+02  2.09457E+02  2.07330E+02  2.06912E+02  2.04600E+02
 -2.00000E+20 -2.00000E+20 -2.00000E+20 -2.00000E+20  3.38873E+02  3.39055E+02  3.39939E+02  3.40033E+02  3.42001E+02  3.38659E+02  3.32952E+02  3.28611E+02  3.22414E+02  3.16321E+02  3.10860E+02  3.02854E+02  2.94640E+02  2.93358E+02  2.86995E+02  2.81837E+02  2.76065E+02  2.70044E+02  2.62841E+02  2.57180E+02  2.53400E+02  2.50766E+02  2.43603E+02  2.28702E+02  2.23759E+02  2.26851E+02  2.20617E+02  2.14466E+02  2.06769E+02  2.04045E+02  1.88244E+02  1.94528E+02  2.00594E+02  2.01759E+02  2.01747E+02  2.00880E+02
 -2.00000E+20 -2.00000E+20 -2.00000E+20 -2.00000E+20 -2.00000E+20 -2.00000E+20  3.42647E+02  3.40117E+02  3.37545E+02  3.34451E+02  3.28122E+02  3.24646E+02  3.20703E+02  3.16889E+02  3.10538E+02  3.02108E+02  2.93938E+02  2.91595E+02  2.86129E+02  2.81261E+02  2.75863E+02  2.55752E+02  2.46722E+02  2.41305E+02  2.36929E+02  2.38304E+02  2.34682E+02  2.32113E+02  2.34972E+02  2.26476E+02  2.15170E+02  2.20482E+02  2.12125E+02  1.98968E+02  1.98035E+02  1.83761E+02  1.92630E+02  1.96213E+02  1.96848E+02  1.95789E+02
 -2.00000E+20 -2.00000E+20 -2.00000E+20 -2.00000E+20 -2.00000E+20 -2.00000E+20 -2.00000E+20  3.41519E+02  3.36434E+02  3.31694E+02  3.28036E+02  3.24503E+02  3.20203E+02  3.16607E+02  3.11867E+02  3.05271E+02  2.99017E+02  2.90178E+02  2.82941E+02  2.76943E+02  2.64457E+02  2.67486E+02  2.63796E+02  2.61514E+02  2.65839E+02  2.60541E+02  2.56705E+02  2.45435E+02  2.37668E+02  2.23132E+02  2.26478E+02  2.21207E+02  2.09429E+02  2.05799E+02  2.00171E+02  1.93722E+02  1.82966E+02  1.90192E+02  1.93136E+02  1.90266E+02
 -2.00000E+20 -2.00000E+20 -2.00000E+20 -2.00000E+20 -2.00000E+20 -2.00000E+20 -2.00000E+20 -2.00000E+20 -2.00000E+20  3.29275E+02  3.26492E+02  3.23293E+02  3.19361E+02  3.16994E+02  3.11429E+02  3.04725E+02  2.97648E+02  2.88326E+02  2.78265E+02  2.71741E+02  2.77670E+02  2.74796E+02  2.70686E+02  2.67133E+02  2.66468E+02  2.62242E+02  2.58533E+02  2.47701E+02  2.37774E+02  2.24899E+02  2.30403E+02  2.23342E+02  2.10901E+02  2.17379E+02  2.16447E+02  2.08920E+02  1.89101E+02  1.76047E+02  1.87593E+02  1.83775E+02
 -2.00000E+20 -2.00000E+20 -2.00000E+20 -2.00000E+20 -2.00000E+20 -2.00000E+20 -2.00000E+20 -2.00000E+20 -2.00000E+20 -2.00000E+20  3.26443E+02  3.22956E+02  3.19039E+02  3.15682E+02  3.11233E+02  3.05914E+02  2.99815E+02  2.85210E+02  2.84961E+02  2.82726E+02  2.82955E+02  2.79673E+02  2.75632E+02  2.70938E+02  2.66739E+02  2.60604E+02  2.53641E+02  2.45050E+02  2.33221E+02  2.33510E+02  2.33304E+02  2.25913E+02  2.10355E+02  2.22060E+02  2.23202E+02  2.21747E+02  2.11006E+02  1.93815E+02  1.74251E+02  1.68892E+02
 -2.00000E+20 -2.00000E+20 -2.00000E+20 -2.00000E+20 -2.00000E+20 -2.00000E+20 -2.00000E+20 -2.00000E+20 -2.00000E+20 -2.00000E+20 -2.00000E+20  3.24091E+02  3.19597E+02  3.16451E+02  3.12616E+02  3.08246E+02  3.03729E+02  2.97473E+02  2.94192E+02  2.91422E+02  2.88717E+02  2.84452E+02  2.79698E+02  2.74831E+02  2.69387E+02  2.60472E+02  2.51081E+02  2.38795E+02  2.32328E+02  2.39888E+02  2.36591E+02  2.29517E+02  2.17862E+02  2.25876E+02  2.26078E+02  2.20686E+02  2.10643E+02  1.89596E+02  1.91479E+02  1.84291E+02
 -2.00000E+20 -2.00000E+20 -2.00000E+20 -2.00000E+20 -2.00000E+20 -2.00000E+20 -2.00000E+20 -2.00000E+20 -2.00000E+20 -2.00000E+20 -2.00000E+20 -2.00000E+20 -2.00000E+20  3.18219E+02  3.14869E+02  3.11305E+02  3.07329E+02  3.03673E+02  2.99966E+02  2.96620E+02  2.93219E+02  2.88438E+02  2.83117E+02  2.77610E+02  2.70816E+02  2.62448E+02  2.51505E+02  2.40457E+02  2.47514E+02  2.42571E+02  2.37113E+02  2.29374E+02  2.27228E+02  2.27873E+02  2.24842E+02  2.18342E+02  2.08447E+02  1.89148E+02  1.97417E+02  1.93708E+02
 -2.00000E+20 -2.00000E+20 -2.00000E+20 -2.00000E+20 -2.00000E+20 -2.00000E+20 -2.00000E+20 -2.00000E+20 -2.00000E+20 -2.00000E+20 -2.00000E+20 -2.00000E+20 -2.00000E+20  3.21444E+02  3.18725E+02  3.14778E+02  3.10617E+02  3.06845E+02  3.03303E+02  3.00101E+02  2.96514E+02  2.90633E+02  2.84900E+02  2.79323E+02  2.72428E+02  2.63869E+02  2.53396E+02  2.50579E+02  2.47378E+02  2.40992E+02  2.35337E+02  2.25335E+02  2.28641E+02  2.26183E+02  2.20955E+02  2.12249E+02  2.01614E+02  2.06002E+02  2.02327E+02  1.99866E+02
 -2.00000E+20 -2.00000E+20 -2.00000E+20 -2.00000E+20 -2.00000E+20 -2.00000E+20 -2.00000E+20 -2.00000E+20 -2.00000E+20 -2.00000E+20 -2.00000E+20 -2.00000E+20 -2.00000E+20 -2.00000E+20  3.21350E+02  3.17865E+02  3.14168E+02  3.09952E+02  3.05386E+02  3.01267E+02  2.97215E+02  2.91568E+02  2.85403E+02  2.79666E+02  2.73627E+02  2.65095E+02  2.55395E+02  2.51680E+02  2.45678E+02  2.34795E+02  2.32374E+02  2.35793E+02  2.29285E+02  2.18611E+02  2.13166E+02  2.12800E+02  2.13260E+02  2.11540E+02  2.06747E+02  2.04376E+02
 -2.00000E+20 -2.00000E+20 -2.00000E+20 -2.00000E+20 -2.00000E+20 -2.00000E+20 -2.00000E+20 -2.00000E+20 -2.00000E+20 -2.00000E+20 -2.00000E+20 -2.00000E+20 -2.00000E+20 -2.00000E+20 -2.00000E+20 -2.00000E+20  3.16038E+02  3.12762E+02  3.08275E+02  3.03189E+02  2.97930E+02  2.92512E+02  2.86378E+02  2.80310E+02  2.74237E+02  2.66599E+02  2.59760E+02  2.53878E+02  2.48971E+02  2.44773E+02  2.38888E+02  2.32525E+02  2.25574E+02  2.28688E+02  2.23837E+02  2.20725E+02  2.15923E+02  2.12773E+02  2.09571E+02  2.07185E+02
 -2.00000E+20 -2.00000E+20 -2.00000E+20 -2.00000E+20 -2.00000E+20 -2.00000E+20 -2.00000E+20 -2.00000E+20 -2.00000E+20 -2.00000E+20 -2.00000E+20 -2.00000E+20 -2.00000E+20 -2.00000E+20 -2.00000E+20 -2.00000E+20 -2.00000E+20  3.14302E+02  3.10624E+02  3.05645E+02  2.99825E+02  2.93301E+02  2.87043E+02  2.80895E+02  2.74397E+02  2.66731E+02  2.60338E+02  2.53557E+02  2.46830E+02  2.45735E+02  2.39462E+02  2.33339E+02  2.33425E+02  2.30789E+02  2.25997E+02  2.22586E+02  2.18689E+02  2.14944E+02  2.12139E+02  2.09152E+02
 -2.00000E+20 -2.00000E+20 -2.00000E+20 -2.00000E+20 -2.00000E+20 -2.00000E+20 -2.00000E+20 -2.00000E+20 -2.00000E+20 -2.00000E+20 -2.00000E+20 -2.00000E+20 -2.00000E+20 -2.00000E+20 -2.00000E+20 -2.00000E+20 -2.00000E+20 -2.00000E+20 -2.00000E+20  3.06101E+02  3.01131E+02  2.94888E+02  2.88100E+02  2.81265E+02  2.74538E+02  2.67320E+02  2.60482E+02  2.51809E+02  2.51314E+02  2.46589E+02  2.41716E+02  2.37650E+02  2.34997E+02  2.31383E+02  2.27693E+02  2.25502E+02  2.21843E+02  2.17517E+02  2.15368E+02 -2.00000E+20
 -2.00000E+20 -2.00000E+20 -2.00000E+20 -2.00000E+20 -2.00000E+20 -2.00000E+20 -2.00000E+20 -2.00000E+20 -2.00000E+20 -2.00000E+20 -2.00000E+20 -2.00000E+20 -2.00000E+20 -2.00000E+20 -2.00000E+20 -2.00000E+20 -2.00000E+20 -2.00000E+20 -2.00000E+20 -2.00000E+20 -2.00000E+20  2.94091E+02  2.88647E+02  2.81558E+02  2.74716E+02  2.67851E+02  2.62096E+02  2.56213E+02  2.52499E+02  2.47695E+02  2.43506E+02  2.40491E+02  2.36883E+02  2.33042E+02  2.29281E+02  2.27266E+02  2.24526E+02  2.20138E+02  2.17001E+02 -2.00000E+20
 
